


 54 56  0  0  0  0  0  0  0  0999 V2000
    9.2790    4.2827   -4.0831 C   0  0  0  0  0  0  0  0  0  0  0  0
    9.8019    3.4261   -2.8765 C   0  0  0  0  0  0  0  0  0  0  0  0
   11.2141    3.2835   -2.7570 O   0  0  0  0  0  0  0  0  0  0  0  0
   11.9654    4.0099   -3.7103 C   0  0  0  0  0  0  0  0  0  0  0  0
   11.5369    3.6187   -5.1353 C   0  0  0  0  0  0  0  0  0  0  0  0
   10.0400    3.9413   -5.3881 C   0  0  0  0  0  0  0  0  0  0  0  0
    9.4295    2.8558   -6.0491 O   0  0  0  0  0  0  0  0  0  0  0  0
    8.6223    3.2094   -6.5042 H   0  0  0  0  0  0  0  0  0  0  0  0
   12.3803    4.3217   -6.1114 N   0  0  0  0  0  0  0  0  0  0  0  0
   13.1670    3.6784   -7.1216 C   0  0  0  0  0  0  0  0  0  0  0  0
   13.0642    2.2033   -7.3952 C   0  0  0  0  0  0  0  0  0  0  0  0
   13.9976    4.3544   -7.7864 O   0  0  0  0  0  0  0  0  0  0  0  0
   12.5165    5.3468   -5.9815 H   0  0  0  0  0  0  0  0  0  0  0  0
    9.1647    2.0224   -2.8503 C   0  0  0  0  0  0  0  0  0  0  0  0
   10.1522    1.0359   -2.9348 O   0  0  0  0  0  0  0  0  0  0  0  0
    9.8221    0.3370   -3.5567 H   0  0  0  0  0  0  0  0  0  0  0  0
    9.4578    5.6730   -3.8367 O   0  0  0  0  0  0  0  0  0  0  0  0
    7.8865    7.2772   -2.9940 C   0  0  0  0  0  0  0  0  0  0  0  0
    8.3488    6.4683   -4.2260 C   0  0  0  0  0  0  0  0  0  0  0  0
    8.7071    7.3815   -5.2474 O   0  0  0  0  0  0  0  0  0  0  0  0
    7.5333    7.9013   -5.8535 C   0  0  0  0  0  0  0  0  0  0  0  0
    6.4811    8.4189   -4.8103 C   0  0  0  0  0  0  0  0  0  0  0  0
    5.4002    7.5259   -4.7336 O   0  0  0  0  0  0  0  0  0  0  0  0
    7.1044    8.5566   -3.4069 C   0  0  0  0  0  0  0  0  0  0  0  0
    7.9709    9.6648   -3.4026 O   0  0  0  0  0  0  0  0  0  0  0  0
    4.8453    7.6891   -5.5443 H   0  0  0  0  0  0  0  0  0  0  0  0
    8.1120    9.9160   -2.4536 H   0  0  0  0  0  0  0  0  0  0  0  0
    6.3896    5.7541    0.2561 C   0  0  0  0  0  0  0  0  0  0  0  0
    6.8919    6.7729   -0.7138 C   0  0  0  0  0  0  0  0  0  0  0  0
    7.1527    7.9345   -0.2993 O   0  0  0  0  0  0  0  0  0  0  0  0
    7.0832    6.4366   -2.0949 N   0  0  0  0  0  0  0  0  0  0  0  0
    6.7830    5.4819   -2.4139 H   0  0  0  0  0  0  0  0  0  0  0  0
    7.9356    8.9938   -6.8538 C   0  0  0  0  0  0  0  0  0  0  0  0
    7.5540   10.2661   -6.4007 O   0  0  0  0  0  0  0  0  0  0  0  0
    6.6733   10.4655   -6.8144 H   0  0  0  0  0  0  0  0  0  0  0  0
   13.3299    3.6520   -3.5465 O   0  0  0  0  0  0  0  0  0  0  0  0
   13.8730    4.0759   -2.3052 C   0  0  0  0  0  0  0  0  0  0  0  0
   14.5394    5.4706   -2.5256 C   0  0  0  0  0  0  0  0  0  0  0  0
   15.9488    5.3808   -2.7033 O   0  0  0  0  0  0  0  0  0  0  0  0
   16.6467    4.8409   -1.5859 C   0  0  0  0  0  0  0  0  0  0  0  0
   16.9847    5.8739   -0.6954 O   0  0  0  0  0  0  0  0  0  0  0  0
   15.8947    3.7001   -0.8449 C   0  0  0  0  0  0  0  0  0  0  0  0
   14.8923    3.0326   -1.7940 C   0  0  0  0  0  0  0  0  0  0  0  0
   14.2109    2.0095   -1.1134 O   0  0  0  0  0  0  0  0  0  0  0  0
   17.6758    5.5107   -0.0881 H   0  0  0  0  0  0  0  0  0  0  0  0
   14.7375    1.1761   -1.2326 H   0  0  0  0  0  0  0  0  0  0  0  0
   16.8571    2.7074   -0.3465 N   0  0  0  0  0  0  0  0  0  0  0  0
   16.9295    2.2516    1.0101 C   0  0  0  0  0  0  0  0  0  0  0  0
   16.0794    2.8481    2.0934 C   0  0  0  0  0  0  0  0  0  0  0  0
   17.7229    1.3170    1.3038 O   0  0  0  0  0  0  0  0  0  0  0  0
   17.5313    2.2935   -1.0316 H   0  0  0  0  0  0  0  0  0  0  0  0
   14.1444    6.5284   -1.4741 C   0  0  0  0  0  0  0  0  0  0  0  0
   14.8510    7.7113   -1.7018 O   0  0  0  0  0  0  0  0  0  0  0  0
   14.4931    8.3734   -1.0579 H   0  0  0  0  0  0  0  0  0  0  0  0
 28 29  1  0  0  0
 29 30  2  0  0  0
 29 31  1  0  0  0
 31 18  1  0  0  0
 31 32  1  0  0  0
 18 19  1  0  0  0
 18 24  1  0  0  0
 19 17  1  0  0  0
 19 20  1  0  0  0
 17  1  1  0  0  0
  1  2  1  0  0  0
  1  6  1  0  0  0
  2 14  1  0  0  0
  2  3  1  0  0  0
 14 15  1  0  0  0
 15 16  1  0  0  0
  3  4  1  0  0  0
  4 36  1  0  0  0
  4  5  1  0  0  0
 36 37  1  0  0  0
 37 38  1  0  0  0
 37 43  1  0  0  0
 38 52  1  0  0  0
 38 39  1  0  0  0
 52 53  1  0  0  0
 53 54  1  0  0  0
 39 40  1  0  0  0
 40 41  1  0  0  0
 40 42  1  0  0  0
 41 45  1  0  0  0
 42 47  1  0  0  0
 42 43  1  0  0  0
 47 48  1  0  0  0
 47 51  1  0  0  0
 48 49  1  0  0  0
 48 50  2  0  0  0
 43 44  1  0  0  0
 44 46  1  0  0  0
  5  9  1  0  0  0
  5  6  1  0  0  0
  9 10  1  0  0  0
  9 13  1  0  0  0
 10 11  1  0  0  0
 10 12  2  0  0  0
  6  7  1  0  0  0
  7  8  1  0  0  0
 20 21  1  0  0  0
 21 33  1  0  0  0
 21 22  1  0  0  0
 33 34  1  0  0  0
 34 35  1  0  0  0
 22 23  1  0  0  0
 22 24  1  0  0  0
 23 26  1  0  0  0
 24 25  1  0  0  0
 25 27  1  0  0  0
M  END
> <COMPND>
    ../0-casp/HunPgd.pdb 

> <AUTHOR>
    GENERATED BY OPEN BABEL 3.1.0

> <MASTER>
        0    0    0    0    0    0    0    0   84    0   84    0

> <minimizedAffinity>
-9.59488

> <CNNscore>
0.7577121854

> <CNNaffinity>
5.2449369431

> <CNN_VS>
3.9741525650

> <CNNaffinity_variance>
0.4552618861

$$$$



 54 56  0  0  0  0  0  0  0  0999 V2000
  -10.2689   -1.8142   -0.5068 C   0  0  0  0  0  0  0  0  0  0  0  0
  -10.0032   -2.4014    0.9242 C   0  0  0  0  0  0  0  0  0  0  0  0
  -11.1489   -2.7273    1.7053 O   0  0  0  0  0  0  0  0  0  0  0  0
  -12.3866   -2.5488    1.0442 C   0  0  0  0  0  0  0  0  0  0  0  0
  -12.5154   -1.1016    0.5380 C   0  0  0  0  0  0  0  0  0  0  0  0
  -11.3969   -0.7533   -0.4800 C   0  0  0  0  0  0  0  0  0  0  0  0
  -10.8721    0.5217   -0.1851 O   0  0  0  0  0  0  0  0  0  0  0  0
  -10.4479    0.8606   -1.0151 H   0  0  0  0  0  0  0  0  0  0  0  0
  -13.8372   -0.9121   -0.0746 N   0  0  0  0  0  0  0  0  0  0  0  0
  -14.7607    0.1232    0.2839 C   0  0  0  0  0  0  0  0  0  0  0  0
  -14.3846    1.2412    1.2165 C   0  0  0  0  0  0  0  0  0  0  0  0
  -15.9379    0.0885   -0.1654 O   0  0  0  0  0  0  0  0  0  0  0  0
  -14.1796   -1.6534   -0.7221 H   0  0  0  0  0  0  0  0  0  0  0  0
   -9.0864   -1.4853    1.7594 C   0  0  0  0  0  0  0  0  0  0  0  0
   -9.8474   -0.6745    2.6074 O   0  0  0  0  0  0  0  0  0  0  0  0
   -9.4522    0.2351    2.5829 H   0  0  0  0  0  0  0  0  0  0  0  0
  -10.6678   -2.8377   -1.4118 O   0  0  0  0  0  0  0  0  0  0  0  0
   -9.3602   -3.9159   -3.1090 C   0  0  0  0  0  0  0  0  0  0  0  0
  -10.1728   -2.6582   -2.7296 C   0  0  0  0  0  0  0  0  0  0  0  0
  -11.2316   -2.5170   -3.6595 O   0  0  0  0  0  0  0  0  0  0  0  0
  -10.7267   -1.9949   -4.8793 C   0  0  0  0  0  0  0  0  0  0  0  0
   -9.4583   -2.7609   -5.3968 C   0  0  0  0  0  0  0  0  0  0  0  0
   -8.3106   -1.9747   -5.2067 O   0  0  0  0  0  0  0  0  0  0  0  0
   -9.2673   -4.0967   -4.6510 C   0  0  0  0  0  0  0  0  0  0  0  0
  -10.2536   -5.0020   -5.0830 O   0  0  0  0  0  0  0  0  0  0  0  0
   -8.3246   -1.2827   -5.9226 H   0  0  0  0  0  0  0  0  0  0  0  0
   -9.9368   -5.9100   -4.8402 H   0  0  0  0  0  0  0  0  0  0  0  0
   -6.0913   -5.0327   -1.3229 C   0  0  0  0  0  0  0  0  0  0  0  0
   -7.2657   -5.0604   -2.2452 C   0  0  0  0  0  0  0  0  0  0  0  0
   -7.5886   -6.1501   -2.7907 O   0  0  0  0  0  0  0  0  0  0  0  0
   -8.0219   -3.8693   -2.5031 N   0  0  0  0  0  0  0  0  0  0  0  0
   -7.6751   -2.9684   -2.0890 H   0  0  0  0  0  0  0  0  0  0  0  0
  -11.8562   -1.9861   -5.9185 C   0  0  0  0  0  0  0  0  0  0  0  0
  -11.6072   -2.9041   -6.9505 O   0  0  0  0  0  0  0  0  0  0  0  0
  -11.1722   -2.3977   -7.6858 H   0  0  0  0  0  0  0  0  0  0  0  0
  -13.4184   -2.7772    1.9930 O   0  0  0  0  0  0  0  0  0  0  0  0
  -13.4891   -4.1273    2.4265 C   0  0  0  0  0  0  0  0  0  0  0  0
  -14.6612   -4.8158    1.6584 C   0  0  0  0  0  0  0  0  0  0  0  0
  -15.8559   -4.8810    2.4294 O   0  0  0  0  0  0  0  0  0  0  0  0
  -15.7389   -5.6411    3.6276 C   0  0  0  0  0  0  0  0  0  0  0  0
  -16.0256   -6.9906    3.3615 O   0  0  0  0  0  0  0  0  0  0  0  0
  -14.3693   -5.5017    4.3492 C   0  0  0  0  0  0  0  0  0  0  0  0
  -13.7041   -4.1772    3.9562 C   0  0  0  0  0  0  0  0  0  0  0  0
  -12.4633   -4.0642    4.6055 O   0  0  0  0  0  0  0  0  0  0  0  0
  -16.1903   -7.4238    4.2353 H   0  0  0  0  0  0  0  0  0  0  0  0
  -12.6271   -3.6164    5.4765 H   0  0  0  0  0  0  0  0  0  0  0  0
  -14.5627   -5.5578    5.8051 N   0  0  0  0  0  0  0  0  0  0  0  0
  -13.8128   -6.3934    6.6956 C   0  0  0  0  0  0  0  0  0  0  0  0
  -12.8146   -7.3943    6.1917 C   0  0  0  0  0  0  0  0  0  0  0  0
  -13.9881   -6.2812    7.9389 O   0  0  0  0  0  0  0  0  0  0  0  0
  -15.2913   -4.9355    6.2257 H   0  0  0  0  0  0  0  0  0  0  0  0
  -14.2886   -6.1762    1.0331 C   0  0  0  0  0  0  0  0  0  0  0  0
  -12.9605   -6.4883    1.3315 O   0  0  0  0  0  0  0  0  0  0  0  0
  -12.8083   -7.4030    0.9834 H   0  0  0  0  0  0  0  0  0  0  0  0
 28 29  1  0  0  0
 29 30  2  0  0  0
 29 31  1  0  0  0
 31 18  1  0  0  0
 31 32  1  0  0  0
 18 19  1  0  0  0
 18 24  1  0  0  0
 19 17  1  0  0  0
 19 20  1  0  0  0
 17  1  1  0  0  0
  1  2  1  0  0  0
  1  6  1  0  0  0
  2 14  1  0  0  0
  2  3  1  0  0  0
 14 15  1  0  0  0
 15 16  1  0  0  0
  3  4  1  0  0  0
  4 36  1  0  0  0
  4  5  1  0  0  0
 36 37  1  0  0  0
 37 38  1  0  0  0
 37 43  1  0  0  0
 38 52  1  0  0  0
 38 39  1  0  0  0
 52 53  1  0  0  0
 53 54  1  0  0  0
 39 40  1  0  0  0
 40 41  1  0  0  0
 40 42  1  0  0  0
 41 45  1  0  0  0
 42 47  1  0  0  0
 42 43  1  0  0  0
 47 48  1  0  0  0
 47 51  1  0  0  0
 48 49  1  0  0  0
 48 50  2  0  0  0
 43 44  1  0  0  0
 44 46  1  0  0  0
  5  9  1  0  0  0
  5  6  1  0  0  0
  9 10  1  0  0  0
  9 13  1  0  0  0
 10 11  1  0  0  0
 10 12  2  0  0  0
  6  7  1  0  0  0
  7  8  1  0  0  0
 20 21  1  0  0  0
 21 33  1  0  0  0
 21 22  1  0  0  0
 33 34  1  0  0  0
 34 35  1  0  0  0
 22 23  1  0  0  0
 22 24  1  0  0  0
 23 26  1  0  0  0
 24 25  1  0  0  0
 25 27  1  0  0  0
M  END
> <COMPND>
    ../0-casp/HunPgd.pdb 

> <AUTHOR>
    GENERATED BY OPEN BABEL 3.1.0

> <MASTER>
        0    0    0    0    0    0    0    0   84    0   84    0

> <minimizedAffinity>
-9.10099

> <CNNscore>
0.4113075435

> <CNNaffinity>
4.8793778419

> <CNN_VS>
2.0069248676

> <CNNaffinity_variance>
0.6164822578

$$$$



 54 56  0  0  0  0  0  0  0  0999 V2000
    9.8111    4.4021   -4.4230 C   0  0  0  0  0  0  0  0  0  0  0  0
   10.2289    3.6855   -3.0907 C   0  0  0  0  0  0  0  0  0  0  0  0
   11.6228    3.4740   -2.8873 O   0  0  0  0  0  0  0  0  0  0  0  0
   12.4569    4.0178   -3.8920 C   0  0  0  0  0  0  0  0  0  0  0  0
   12.0580    3.4650   -5.2714 C   0  0  0  0  0  0  0  0  0  0  0  0
   10.5969    3.8418   -5.6343 C   0  0  0  0  0  0  0  0  0  0  0  0
    9.9407    2.7166   -6.1741 O   0  0  0  0  0  0  0  0  0  0  0  0
    9.1770    3.0545   -6.7093 H   0  0  0  0  0  0  0  0  0  0  0  0
   12.9834    3.9769   -6.2911 N   0  0  0  0  0  0  0  0  0  0  0  0
   13.5270    3.1971   -7.3632 C   0  0  0  0  0  0  0  0  0  0  0  0
   13.0548    1.7993   -7.6536 C   0  0  0  0  0  0  0  0  0  0  0  0
   14.4529    3.6758   -8.0721 O   0  0  0  0  0  0  0  0  0  0  0  0
   13.3705    4.9348   -6.1540 H   0  0  0  0  0  0  0  0  0  0  0  0
    9.4984    2.3399   -2.9092 C   0  0  0  0  0  0  0  0  0  0  0  0
   10.4024    1.2769   -3.0020 O   0  0  0  0  0  0  0  0  0  0  0  0
    9.9704    0.5653   -3.5416 H   0  0  0  0  0  0  0  0  0  0  0  0
   10.0732    5.7992   -4.3543 O   0  0  0  0  0  0  0  0  0  0  0  0
    8.0868    7.0645   -4.8082 C   0  0  0  0  0  0  0  0  0  0  0  0
    9.0456    6.5414   -3.7160 C   0  0  0  0  0  0  0  0  0  0  0  0
    8.3029    5.7271   -2.8266 O   0  0  0  0  0  0  0  0  0  0  0  0
    7.5362    6.5480   -1.9584 C   0  0  0  0  0  0  0  0  0  0  0  0
    6.7206    7.6525   -2.7189 C   0  0  0  0  0  0  0  0  0  0  0  0
    7.3093    8.9109   -2.5156 O   0  0  0  0  0  0  0  0  0  0  0  0
    6.6742    7.3713   -4.2341 C   0  0  0  0  0  0  0  0  0  0  0  0
    5.8197    6.2783   -4.4663 O   0  0  0  0  0  0  0  0  0  0  0  0
    7.0526    9.1939   -1.5960 H   0  0  0  0  0  0  0  0  0  0  0  0
    5.5653    6.3104   -5.4244 H   0  0  0  0  0  0  0  0  0  0  0  0
    9.6493   10.5855   -5.3415 C   0  0  0  0  0  0  0  0  0  0  0  0
    9.3929    9.2400   -4.7459 C   0  0  0  0  0  0  0  0  0  0  0  0
    9.8306    8.9900   -3.5904 O   0  0  0  0  0  0  0  0  0  0  0  0
    8.6538    8.2475   -5.4709 N   0  0  0  0  0  0  0  0  0  0  0  0
    8.3724    8.4691   -6.4584 H   0  0  0  0  0  0  0  0  0  0  0  0
    6.6302    5.6519   -1.1028 C   0  0  0  0  0  0  0  0  0  0  0  0
    5.8611    4.7922   -1.9022 O   0  0  0  0  0  0  0  0  0  0  0  0
    4.9842    5.2374   -2.0405 H   0  0  0  0  0  0  0  0  0  0  0  0
   13.7871    3.6021   -3.6187 O   0  0  0  0  0  0  0  0  0  0  0  0
   14.2862    4.1020   -2.3871 C   0  0  0  0  0  0  0  0  0  0  0  0
   15.0435    5.4349   -2.6833 C   0  0  0  0  0  0  0  0  0  0  0  0
   16.4528    5.2549   -2.7697 O   0  0  0  0  0  0  0  0  0  0  0  0
   17.0567    4.7771   -1.5722 C   0  0  0  0  0  0  0  0  0  0  0  0
   17.4057    5.8635   -0.7524 O   0  0  0  0  0  0  0  0  0  0  0  0
   16.2006    3.7464   -0.7843 C   0  0  0  0  0  0  0  0  0  0  0  0
   15.2138    3.0539   -1.7319 C   0  0  0  0  0  0  0  0  0  0  0  0
   14.4383    2.1312   -1.0098 O   0  0  0  0  0  0  0  0  0  0  0  0
   18.0406    5.5178   -0.0774 H   0  0  0  0  0  0  0  0  0  0  0  0
   14.9211    1.2637   -1.0280 H   0  0  0  0  0  0  0  0  0  0  0  0
   17.0754    2.7504   -0.1493 N   0  0  0  0  0  0  0  0  0  0  0  0
   16.9589    2.3114    1.2098 C   0  0  0  0  0  0  0  0  0  0  0  0
   15.9777    2.9306    2.1616 C   0  0  0  0  0  0  0  0  0  0  0  0
   17.6944    1.3727    1.6184 O   0  0  0  0  0  0  0  0  0  0  0  0
   17.8307    2.3209   -0.7325 H   0  0  0  0  0  0  0  0  0  0  0  0
   14.6545    6.5992   -1.7484 C   0  0  0  0  0  0  0  0  0  0  0  0
   13.6386    6.1924   -0.8807 O   0  0  0  0  0  0  0  0  0  0  0  0
   13.4955    6.9453   -0.2533 H   0  0  0  0  0  0  0  0  0  0  0  0
 28 29  1  0  0  0
 29 30  2  0  0  0
 29 31  1  0  0  0
 31 18  1  0  0  0
 31 32  1  0  0  0
 18 19  1  0  0  0
 18 24  1  0  0  0
 19 17  1  0  0  0
 19 20  1  0  0  0
 17  1  1  0  0  0
  1  2  1  0  0  0
  1  6  1  0  0  0
  2 14  1  0  0  0
  2  3  1  0  0  0
 14 15  1  0  0  0
 15 16  1  0  0  0
  3  4  1  0  0  0
  4 36  1  0  0  0
  4  5  1  0  0  0
 36 37  1  0  0  0
 37 38  1  0  0  0
 37 43  1  0  0  0
 38 52  1  0  0  0
 38 39  1  0  0  0
 52 53  1  0  0  0
 53 54  1  0  0  0
 39 40  1  0  0  0
 40 41  1  0  0  0
 40 42  1  0  0  0
 41 45  1  0  0  0
 42 47  1  0  0  0
 42 43  1  0  0  0
 47 48  1  0  0  0
 47 51  1  0  0  0
 48 49  1  0  0  0
 48 50  2  0  0  0
 43 44  1  0  0  0
 44 46  1  0  0  0
  5  9  1  0  0  0
  5  6  1  0  0  0
  9 10  1  0  0  0
  9 13  1  0  0  0
 10 11  1  0  0  0
 10 12  2  0  0  0
  6  7  1  0  0  0
  7  8  1  0  0  0
 20 21  1  0  0  0
 21 33  1  0  0  0
 21 22  1  0  0  0
 33 34  1  0  0  0
 34 35  1  0  0  0
 22 23  1  0  0  0
 22 24  1  0  0  0
 23 26  1  0  0  0
 24 25  1  0  0  0
 25 27  1  0  0  0
M  END
> <COMPND>
    ../0-casp/HunPgd.pdb 

> <AUTHOR>
    GENERATED BY OPEN BABEL 3.1.0

> <MASTER>
        0    0    0    0    0    0    0    0   84    0   84    0

> <minimizedAffinity>
-8.89366

> <CNNscore>
0.2828161120

> <CNNaffinity>
4.7749261856

> <CNN_VS>
1.3504260778

> <CNNaffinity_variance>
0.3246976733

$$$$



 54 56  0  0  0  0  0  0  0  0999 V2000
    9.6655    5.7616   -5.0254 C   0  0  0  0  0  0  0  0  0  0  0  0
    9.8661    5.0283   -3.6524 C   0  0  0  0  0  0  0  0  0  0  0  0
   11.1686    4.5184   -3.3831 O   0  0  0  0  0  0  0  0  0  0  0  0
   12.1370    4.8169   -4.3700 C   0  0  0  0  0  0  0  0  0  0  0  0
   11.6697    4.3082   -5.7449 C   0  0  0  0  0  0  0  0  0  0  0  0
   10.3443    4.9871   -6.1822 C   0  0  0  0  0  0  0  0  0  0  0  0
    9.4692    4.0156   -6.7096 O   0  0  0  0  0  0  0  0  0  0  0  0
    8.8198    4.4925   -7.2880 H   0  0  0  0  0  0  0  0  0  0  0  0
   12.7201    4.5546   -6.7419 N   0  0  0  0  0  0  0  0  0  0  0  0
   13.3914    3.5319   -7.4880 C   0  0  0  0  0  0  0  0  0  0  0  0
   12.9521    2.0944   -7.4470 C   0  0  0  0  0  0  0  0  0  0  0  0
   14.4027    3.8296   -8.1791 O   0  0  0  0  0  0  0  0  0  0  0  0
   13.0921    5.5249   -6.8212 H   0  0  0  0  0  0  0  0  0  0  0  0
    8.8449    3.8901   -3.4551 C   0  0  0  0  0  0  0  0  0  0  0  0
    9.3704    2.9023   -2.6162 O   0  0  0  0  0  0  0  0  0  0  0  0
    9.1257    2.0223   -3.0033 H   0  0  0  0  0  0  0  0  0  0  0  0
   10.2341    7.0660   -4.9944 O   0  0  0  0  0  0  0  0  0  0  0  0
    8.2877    8.2345   -5.7686 C   0  0  0  0  0  0  0  0  0  0  0  0
    9.3135    8.0806   -4.6240 C   0  0  0  0  0  0  0  0  0  0  0  0
    8.6127    7.7301   -3.4443 O   0  0  0  0  0  0  0  0  0  0  0  0
    7.9772    8.8813   -2.9091 C   0  0  0  0  0  0  0  0  0  0  0  0
    7.1573    9.6838   -3.9801 C   0  0  0  0  0  0  0  0  0  0  0  0
    7.8317   10.8695   -4.3130 O   0  0  0  0  0  0  0  0  0  0  0  0
    6.9542    8.8571   -5.2654 C   0  0  0  0  0  0  0  0  0  0  0  0
    6.0221    7.8361   -5.0052 O   0  0  0  0  0  0  0  0  0  0  0  0
    7.6780   11.4996   -3.5574 H   0  0  0  0  0  0  0  0  0  0  0  0
    5.6817    7.5265   -5.8837 H   0  0  0  0  0  0  0  0  0  0  0  0
    8.9259    9.6439   -9.3365 C   0  0  0  0  0  0  0  0  0  0  0  0
    8.1904    9.1506   -8.1337 C   0  0  0  0  0  0  0  0  0  0  0  0
    6.9744    8.8380   -8.2469 O   0  0  0  0  0  0  0  0  0  0  0  0
    8.8556    9.0258   -6.8692 N   0  0  0  0  0  0  0  0  0  0  0  0
    9.8465    9.3676   -6.8000 H   0  0  0  0  0  0  0  0  0  0  0  0
    7.1063    8.4568   -1.7186 C   0  0  0  0  0  0  0  0  0  0  0  0
    5.9978    9.3044   -1.5695 O   0  0  0  0  0  0  0  0  0  0  0  0
    6.2529    9.9956   -0.9035 H   0  0  0  0  0  0  0  0  0  0  0  0
   13.3290    4.1256   -4.0264 O   0  0  0  0  0  0  0  0  0  0  0  0
   13.8135    4.4570   -2.7337 C   0  0  0  0  0  0  0  0  0  0  0  0
   14.5591    5.8249   -2.8381 C   0  0  0  0  0  0  0  0  0  0  0  0
   15.9708    5.6717   -2.9359 O   0  0  0  0  0  0  0  0  0  0  0  0
   16.5707    5.0402   -1.8096 C   0  0  0  0  0  0  0  0  0  0  0  0
   16.9020    6.0076   -0.8459 O   0  0  0  0  0  0  0  0  0  0  0  0
   15.7196    3.9034   -1.1777 C   0  0  0  0  0  0  0  0  0  0  0  0
   14.7473    3.3378   -2.2197 C   0  0  0  0  0  0  0  0  0  0  0  0
   13.9761    2.3178   -1.6374 O   0  0  0  0  0  0  0  0  0  0  0  0
   17.5355    5.5787   -0.2190 H   0  0  0  0  0  0  0  0  0  0  0  0
   14.4681    1.4655   -1.7698 H   0  0  0  0  0  0  0  0  0  0  0  0
   16.6000    2.8383   -0.6771 N   0  0  0  0  0  0  0  0  0  0  0  0
   16.6453    2.3900    0.6832 C   0  0  0  0  0  0  0  0  0  0  0  0
   15.8570    3.0651    1.7672 C   0  0  0  0  0  0  0  0  0  0  0  0
   17.3603    1.3951    0.9798 O   0  0  0  0  0  0  0  0  0  0  0  0
   17.2314    2.3634   -1.3633 H   0  0  0  0  0  0  0  0  0  0  0  0
   14.1509    6.8467   -1.7564 C   0  0  0  0  0  0  0  0  0  0  0  0
   14.8717    8.0308   -1.9254 O   0  0  0  0  0  0  0  0  0  0  0  0
   14.5059    8.6718   -1.2649 H   0  0  0  0  0  0  0  0  0  0  0  0
 28 29  1  0  0  0
 29 30  2  0  0  0
 29 31  1  0  0  0
 31 18  1  0  0  0
 31 32  1  0  0  0
 18 19  1  0  0  0
 18 24  1  0  0  0
 19 17  1  0  0  0
 19 20  1  0  0  0
 17  1  1  0  0  0
  1  2  1  0  0  0
  1  6  1  0  0  0
  2 14  1  0  0  0
  2  3  1  0  0  0
 14 15  1  0  0  0
 15 16  1  0  0  0
  3  4  1  0  0  0
  4 36  1  0  0  0
  4  5  1  0  0  0
 36 37  1  0  0  0
 37 38  1  0  0  0
 37 43  1  0  0  0
 38 52  1  0  0  0
 38 39  1  0  0  0
 52 53  1  0  0  0
 53 54  1  0  0  0
 39 40  1  0  0  0
 40 41  1  0  0  0
 40 42  1  0  0  0
 41 45  1  0  0  0
 42 47  1  0  0  0
 42 43  1  0  0  0
 47 48  1  0  0  0
 47 51  1  0  0  0
 48 49  1  0  0  0
 48 50  2  0  0  0
 43 44  1  0  0  0
 44 46  1  0  0  0
  5  9  1  0  0  0
  5  6  1  0  0  0
  9 10  1  0  0  0
  9 13  1  0  0  0
 10 11  1  0  0  0
 10 12  2  0  0  0
  6  7  1  0  0  0
  7  8  1  0  0  0
 20 21  1  0  0  0
 21 33  1  0  0  0
 21 22  1  0  0  0
 33 34  1  0  0  0
 34 35  1  0  0  0
 22 23  1  0  0  0
 22 24  1  0  0  0
 23 26  1  0  0  0
 24 25  1  0  0  0
 25 27  1  0  0  0
M  END
> <COMPND>
    ../0-casp/HunPgd.pdb 

> <AUTHOR>
    GENERATED BY OPEN BABEL 3.1.0

> <MASTER>
        0    0    0    0    0    0    0    0   84    0   84    0

> <minimizedAffinity>
-8.77277

> <CNNscore>
0.2417907864

> <CNNaffinity>
4.5663290024

> <CNN_VS>
1.1040962934

> <CNNaffinity_variance>
0.5058372617

$$$$



 54 56  0  0  0  0  0  0  0  0999 V2000
   -0.9912   28.8340    0.6150 C   0  0  0  0  0  0  0  0  0  0  0  0
   -0.4617   29.9723   -0.3269 C   0  0  0  0  0  0  0  0  0  0  0  0
   -0.3848   29.6694   -1.7166 O   0  0  0  0  0  0  0  0  0  0  0  0
   -0.8784   28.3925   -2.0725 C   0  0  0  0  0  0  0  0  0  0  0  0
   -0.1467   27.2983   -1.2758 C   0  0  0  0  0  0  0  0  0  0  0  0
   -0.3643   27.4651    0.2517 C   0  0  0  0  0  0  0  0  0  0  0  0
    0.8620   27.2867    0.9243 O   0  0  0  0  0  0  0  0  0  0  0  0
    0.6469   27.0427    1.8613 H   0  0  0  0  0  0  0  0  0  0  0  0
   -0.6143   25.9766   -1.7146 N   0  0  0  0  0  0  0  0  0  0  0  0
    0.1973   25.0079   -2.3900 C   0  0  0  0  0  0  0  0  0  0  0  0
    1.6806   25.1876   -2.5601 C   0  0  0  0  0  0  0  0  0  0  0  0
   -0.3430   23.9842   -2.8890 O   0  0  0  0  0  0  0  0  0  0  0  0
   -1.6351   25.7784   -1.6452 H   0  0  0  0  0  0  0  0  0  0  0  0
    0.9092   30.5070    0.1337 C   0  0  0  0  0  0  0  0  0  0  0  0
    1.9415   29.8633   -0.5560 O   0  0  0  0  0  0  0  0  0  0  0  0
    2.6570   29.6609    0.1007 H   0  0  0  0  0  0  0  0  0  0  0  0
   -2.4037   28.6982    0.5061 O   0  0  0  0  0  0  0  0  0  0  0  0
   -3.3465   26.9739    1.8812 C   0  0  0  0  0  0  0  0  0  0  0  0
   -3.0535   28.4847    1.7496 C   0  0  0  0  0  0  0  0  0  0  0  0
   -2.2269   28.8723    2.8324 O   0  0  0  0  0  0  0  0  0  0  0  0
   -3.0094   28.9835    4.0117 C   0  0  0  0  0  0  0  0  0  0  0  0
   -3.9242   27.7329    4.2618 C   0  0  0  0  0  0  0  0  0  0  0  0
   -5.2632   28.0534    3.9861 O   0  0  0  0  0  0  0  0  0  0  0  0
   -3.5092   26.5473    3.3679 C   0  0  0  0  0  0  0  0  0  0  0  0
   -2.2953   26.0218    3.8467 O   0  0  0  0  0  0  0  0  0  0  0  0
   -5.5876   28.5877    4.7613 H   0  0  0  0  0  0  0  0  0  0  0  0
   -2.2099   25.1075    3.4720 H   0  0  0  0  0  0  0  0  0  0  0  0
   -5.6199   26.0694   -1.1416 C   0  0  0  0  0  0  0  0  0  0  0  0
   -4.4282   26.0985   -0.2416 C   0  0  0  0  0  0  0  0  0  0  0  0
   -3.3235   25.6750   -0.6769 O   0  0  0  0  0  0  0  0  0  0  0  0
   -4.5331   26.6067    1.0954 N   0  0  0  0  0  0  0  0  0  0  0  0
   -5.4859   26.8791    1.4437 H   0  0  0  0  0  0  0  0  0  0  0  0
   -2.0771   29.2599    5.1993 C   0  0  0  0  0  0  0  0  0  0  0  0
   -1.7015   28.0696    5.8410 O   0  0  0  0  0  0  0  0  0  0  0  0
   -2.3310   27.9413    6.5984 H   0  0  0  0  0  0  0  0  0  0  0  0
   -0.6020   28.1931   -3.4512 O   0  0  0  0  0  0  0  0  0  0  0  0
   -1.7304   28.4132   -4.2842 C   0  0  0  0  0  0  0  0  0  0  0  0
   -2.9981   27.9321   -3.5099 C   0  0  0  0  0  0  0  0  0  0  0  0
   -3.4141   26.6279   -3.8995 O   0  0  0  0  0  0  0  0  0  0  0  0
   -3.7871   26.5169   -5.2690 C   0  0  0  0  0  0  0  0  0  0  0  0
   -5.1509   26.8223   -5.4140 O   0  0  0  0  0  0  0  0  0  0  0  0
   -2.9262   27.3684   -6.2436 C   0  0  0  0  0  0  0  0  0  0  0  0
   -1.5554   27.6521   -5.6179 C   0  0  0  0  0  0  0  0  0  0  0  0
   -0.7879   28.4297   -6.5013 O   0  0  0  0  0  0  0  0  0  0  0  0
   -5.4245   26.4861   -6.3030 H   0  0  0  0  0  0  0  0  0  0  0  0
   -0.2877   27.8024   -7.0863 H   0  0  0  0  0  0  0  0  0  0  0  0
   -2.7622   26.6565   -7.5189 N   0  0  0  0  0  0  0  0  0  0  0  0
   -3.2161   27.1427   -8.7882 C   0  0  0  0  0  0  0  0  0  0  0  0
   -4.0206   28.4034   -8.9128 C   0  0  0  0  0  0  0  0  0  0  0  0
   -2.9258   26.4998   -9.8330 O   0  0  0  0  0  0  0  0  0  0  0  0
   -2.2686   25.7339   -7.5037 H   0  0  0  0  0  0  0  0  0  0  0  0
   -4.1600   28.9473   -3.5154 C   0  0  0  0  0  0  0  0  0  0  0  0
   -3.6767   30.2239   -3.2200 O   0  0  0  0  0  0  0  0  0  0  0  0
   -4.4453   30.8397   -3.3252 H   0  0  0  0  0  0  0  0  0  0  0  0
 28 29  1  0  0  0
 29 30  2  0  0  0
 29 31  1  0  0  0
 31 18  1  0  0  0
 31 32  1  0  0  0
 18 19  1  0  0  0
 18 24  1  0  0  0
 19 17  1  0  0  0
 19 20  1  0  0  0
 17  1  1  0  0  0
  1  2  1  0  0  0
  1  6  1  0  0  0
  2 14  1  0  0  0
  2  3  1  0  0  0
 14 15  1  0  0  0
 15 16  1  0  0  0
  3  4  1  0  0  0
  4 36  1  0  0  0
  4  5  1  0  0  0
 36 37  1  0  0  0
 37 38  1  0  0  0
 37 43  1  0  0  0
 38 52  1  0  0  0
 38 39  1  0  0  0
 52 53  1  0  0  0
 53 54  1  0  0  0
 39 40  1  0  0  0
 40 41  1  0  0  0
 40 42  1  0  0  0
 41 45  1  0  0  0
 42 47  1  0  0  0
 42 43  1  0  0  0
 47 48  1  0  0  0
 47 51  1  0  0  0
 48 49  1  0  0  0
 48 50  2  0  0  0
 43 44  1  0  0  0
 44 46  1  0  0  0
  5  9  1  0  0  0
  5  6  1  0  0  0
  9 10  1  0  0  0
  9 13  1  0  0  0
 10 11  1  0  0  0
 10 12  2  0  0  0
  6  7  1  0  0  0
  7  8  1  0  0  0
 20 21  1  0  0  0
 21 33  1  0  0  0
 21 22  1  0  0  0
 33 34  1  0  0  0
 34 35  1  0  0  0
 22 23  1  0  0  0
 22 24  1  0  0  0
 23 26  1  0  0  0
 24 25  1  0  0  0
 25 27  1  0  0  0
M  END
> <COMPND>
    ../0-casp/HunPgd.pdb 

> <AUTHOR>
    GENERATED BY OPEN BABEL 3.1.0

> <MASTER>
        0    0    0    0    0    0    0    0   84    0   84    0

> <minimizedAffinity>
-6.03970

> <CNNscore>
0.2275928259

> <CNNaffinity>
3.8126525879

> <CNN_VS>
0.8677324057

> <CNNaffinity_variance>
1.5213607550

$$$$



 54 56  0  0  0  0  0  0  0  0999 V2000
   -1.1054  -18.4778    4.9810 C   0  0  0  0  0  0  0  0  0  0  0  0
   -1.0156  -19.9484    4.4403 C   0  0  0  0  0  0  0  0  0  0  0  0
   -1.4909  -20.9778    5.3026 O   0  0  0  0  0  0  0  0  0  0  0  0
   -2.0603  -20.5197    6.5137 C   0  0  0  0  0  0  0  0  0  0  0  0
   -1.0514  -19.6456    7.2788 C   0  0  0  0  0  0  0  0  0  0  0  0
   -0.6478  -18.3917    6.4581 C   0  0  0  0  0  0  0  0  0  0  0  0
    0.7479  -18.2075    6.5353 O   0  0  0  0  0  0  0  0  0  0  0  0
    0.9272  -17.2541    6.3286 H   0  0  0  0  0  0  0  0  0  0  0  0
   -1.6289  -19.2447    8.5687 N   0  0  0  0  0  0  0  0  0  0  0  0
   -0.9238  -19.2556    9.8159 C   0  0  0  0  0  0  0  0  0  0  0  0
    0.5551  -19.5164    9.8952 C   0  0  0  0  0  0  0  0  0  0  0  0
   -1.5582  -19.0735   10.8899 O   0  0  0  0  0  0  0  0  0  0  0  0
   -2.6544  -19.0618    8.6021 H   0  0  0  0  0  0  0  0  0  0  0  0
    0.4148  -20.3084    3.9912 C   0  0  0  0  0  0  0  0  0  0  0  0
    0.7279  -19.6606    2.7921 O   0  0  0  0  0  0  0  0  0  0  0  0
    1.2046  -20.3135    2.2169 H   0  0  0  0  0  0  0  0  0  0  0  0
   -2.4422  -17.9931    4.9199 O   0  0  0  0  0  0  0  0  0  0  0  0
   -3.0085  -16.0188    6.1587 C   0  0  0  0  0  0  0  0  0  0  0  0
   -2.5320  -16.5817    4.8015 C   0  0  0  0  0  0  0  0  0  0  0  0
   -1.2704  -16.0116    4.5031 O   0  0  0  0  0  0  0  0  0  0  0  0
   -1.4468  -14.6786    4.0478 C   0  0  0  0  0  0  0  0  0  0  0  0
   -2.3787  -13.8288    4.9820 C   0  0  0  0  0  0  0  0  0  0  0  0
   -3.6268  -13.6347    4.3688 O   0  0  0  0  0  0  0  0  0  0  0  0
   -2.6014  -14.5285    6.3377 C   0  0  0  0  0  0  0  0  0  0  0  0
   -1.4153  -14.4475    7.0898 O   0  0  0  0  0  0  0  0  0  0  0  0
   -3.4911  -12.9327    3.6758 H   0  0  0  0  0  0  0  0  0  0  0  0
   -1.6624  -14.6149    8.0356 H   0  0  0  0  0  0  0  0  0  0  0  0
   -6.4662  -17.6541    6.8615 C   0  0  0  0  0  0  0  0  0  0  0  0
   -5.0235  -17.3010    7.0184 C   0  0  0  0  0  0  0  0  0  0  0  0
   -4.3029  -17.9999    7.7810 O   0  0  0  0  0  0  0  0  0  0  0  0
   -4.4607  -16.1892    6.3082 N   0  0  0  0  0  0  0  0  0  0  0  0
   -5.1107  -15.5880    5.7430 H   0  0  0  0  0  0  0  0  0  0  0  0
   -0.0670  -14.0303    3.8695 C   0  0  0  0  0  0  0  0  0  0  0  0
    0.7078  -14.1515    5.0333 O   0  0  0  0  0  0  0  0  0  0  0  0
    0.5816  -13.3129    5.5503 H   0  0  0  0  0  0  0  0  0  0  0  0
   -2.3502  -21.6586    7.3110 O   0  0  0  0  0  0  0  0  0  0  0  0
   -2.7068  -22.7998    6.5454 C   0  0  0  0  0  0  0  0  0  0  0  0
   -4.1862  -22.6203    6.0796 C   0  0  0  0  0  0  0  0  0  0  0  0
   -5.1076  -23.3281    6.9017 O   0  0  0  0  0  0  0  0  0  0  0  0
   -4.9205  -24.7395    6.9103 C   0  0  0  0  0  0  0  0  0  0  0  0
   -5.6542  -25.3202    5.8622 O   0  0  0  0  0  0  0  0  0  0  0  0
   -3.4349  -25.1939    6.8594 C   0  0  0  0  0  0  0  0  0  0  0  0
   -2.5288  -24.0787    7.3946 C   0  0  0  0  0  0  0  0  0  0  0  0
   -1.1880  -24.4945    7.3361 O   0  0  0  0  0  0  0  0  0  0  0  0
   -5.7117  -26.2881    6.0578 H   0  0  0  0  0  0  0  0  0  0  0  0
   -0.9828  -24.9469    8.1960 H   0  0  0  0  0  0  0  0  0  0  0  0
   -3.2577  -26.4157    7.6568 N   0  0  0  0  0  0  0  0  0  0  0  0
   -3.3546  -27.7485    7.1391 C   0  0  0  0  0  0  0  0  0  0  0  0
   -3.7684  -28.0206    5.7225 C   0  0  0  0  0  0  0  0  0  0  0  0
   -3.0767  -28.7221    7.8901 O   0  0  0  0  0  0  0  0  0  0  0  0
   -3.0329  -26.3077    8.6731 H   0  0  0  0  0  0  0  0  0  0  0  0
   -4.4086  -22.8916    4.5770 C   0  0  0  0  0  0  0  0  0  0  0  0
   -3.1845  -22.8734    3.9048 O   0  0  0  0  0  0  0  0  0  0  0  0
   -3.3800  -23.1393    2.9710 H   0  0  0  0  0  0  0  0  0  0  0  0
 28 29  1  0  0  0
 29 30  2  0  0  0
 29 31  1  0  0  0
 31 18  1  0  0  0
 31 32  1  0  0  0
 18 19  1  0  0  0
 18 24  1  0  0  0
 19 17  1  0  0  0
 19 20  1  0  0  0
 17  1  1  0  0  0
  1  2  1  0  0  0
  1  6  1  0  0  0
  2 14  1  0  0  0
  2  3  1  0  0  0
 14 15  1  0  0  0
 15 16  1  0  0  0
  3  4  1  0  0  0
  4 36  1  0  0  0
  4  5  1  0  0  0
 36 37  1  0  0  0
 37 38  1  0  0  0
 37 43  1  0  0  0
 38 52  1  0  0  0
 38 39  1  0  0  0
 52 53  1  0  0  0
 53 54  1  0  0  0
 39 40  1  0  0  0
 40 41  1  0  0  0
 40 42  1  0  0  0
 41 45  1  0  0  0
 42 47  1  0  0  0
 42 43  1  0  0  0
 47 48  1  0  0  0
 47 51  1  0  0  0
 48 49  1  0  0  0
 48 50  2  0  0  0
 43 44  1  0  0  0
 44 46  1  0  0  0
  5  9  1  0  0  0
  5  6  1  0  0  0
  9 10  1  0  0  0
  9 13  1  0  0  0
 10 11  1  0  0  0
 10 12  2  0  0  0
  6  7  1  0  0  0
  7  8  1  0  0  0
 20 21  1  0  0  0
 21 33  1  0  0  0
 21 22  1  0  0  0
 33 34  1  0  0  0
 34 35  1  0  0  0
 22 23  1  0  0  0
 22 24  1  0  0  0
 23 26  1  0  0  0
 24 25  1  0  0  0
 25 27  1  0  0  0
M  END
> <COMPND>
    ../0-casp/HunPgd.pdb 

> <AUTHOR>
    GENERATED BY OPEN BABEL 3.1.0

> <MASTER>
        0    0    0    0    0    0    0    0   84    0   84    0

> <minimizedAffinity>
-6.94392

> <CNNscore>
0.1896403581

> <CNNaffinity>
3.6201241016

> <CNN_VS>
0.6865216494

> <CNNaffinity_variance>
0.9566487074

$$$$



 54 56  0  0  0  0  0  0  0  0999 V2000
  -11.1159   -3.9305   -2.2472 C   0  0  0  0  0  0  0  0  0  0  0  0
   -9.8285   -3.0798   -2.5339 C   0  0  0  0  0  0  0  0  0  0  0  0
   -9.8112   -2.3336   -3.7471 O   0  0  0  0  0  0  0  0  0  0  0  0
  -11.0068   -2.3998   -4.5001 C   0  0  0  0  0  0  0  0  0  0  0  0
  -11.3579   -3.8649   -4.8131 C   0  0  0  0  0  0  0  0  0  0  0  0
  -11.5866   -4.6847   -3.5153 C   0  0  0  0  0  0  0  0  0  0  0  0
  -10.9335   -5.9296   -3.6235 O   0  0  0  0  0  0  0  0  0  0  0  0
  -11.3735   -6.5454   -2.9825 H   0  0  0  0  0  0  0  0  0  0  0  0
  -12.5561   -3.9115   -5.6618 N   0  0  0  0  0  0  0  0  0  0  0  0
  -12.5422   -4.1067   -7.0812 C   0  0  0  0  0  0  0  0  0  0  0  0
  -11.2859   -4.4644   -7.8261 C   0  0  0  0  0  0  0  0  0  0  0  0
  -13.6041   -3.9449   -7.7409 O   0  0  0  0  0  0  0  0  0  0  0  0
  -13.4676   -3.6596   -5.2238 H   0  0  0  0  0  0  0  0  0  0  0  0
   -8.5481   -3.9363   -2.4683 C   0  0  0  0  0  0  0  0  0  0  0  0
   -8.2031   -4.3975   -3.7426 O   0  0  0  0  0  0  0  0  0  0  0  0
   -7.9238   -5.3450   -3.6506 H   0  0  0  0  0  0  0  0  0  0  0  0
  -12.1908   -3.1006   -1.8212 O   0  0  0  0  0  0  0  0  0  0  0  0
  -13.6682   -3.2415    0.0631 C   0  0  0  0  0  0  0  0  0  0  0  0
  -13.3052   -3.8231   -1.3211 C   0  0  0  0  0  0  0  0  0  0  0  0
  -14.4298   -3.6821   -2.1704 O   0  0  0  0  0  0  0  0  0  0  0  0
  -15.3944   -4.6733   -1.8504 C   0  0  0  0  0  0  0  0  0  0  0  0
  -15.7028   -4.7567   -0.3138 C   0  0  0  0  0  0  0  0  0  0  0  0
  -15.1205   -5.9121    0.2318 O   0  0  0  0  0  0  0  0  0  0  0  0
  -15.1507   -3.5279    0.4361 C   0  0  0  0  0  0  0  0  0  0  0  0
  -15.9442   -2.4100    0.1203 O   0  0  0  0  0  0  0  0  0  0  0  0
  -15.7016   -6.6732   -0.0416 H   0  0  0  0  0  0  0  0  0  0  0  0
  -15.7766   -1.7306    0.8231 H   0  0  0  0  0  0  0  0  0  0  0  0
  -11.1342   -3.3438    3.0113 C   0  0  0  0  0  0  0  0  0  0  0  0
  -12.3130   -2.9395    2.1879 C   0  0  0  0  0  0  0  0  0  0  0  0
  -12.9103   -1.8640    2.4630 O   0  0  0  0  0  0  0  0  0  0  0  0
  -12.7571   -3.7557    1.0953 N   0  0  0  0  0  0  0  0  0  0  0  0
  -12.2797   -4.6796    0.9471 H   0  0  0  0  0  0  0  0  0  0  0  0
  -16.6615   -4.4152   -2.6774 C   0  0  0  0  0  0  0  0  0  0  0  0
  -17.6527   -3.7854   -1.9090 O   0  0  0  0  0  0  0  0  0  0  0  0
  -18.2448   -4.5030   -1.5611 H   0  0  0  0  0  0  0  0  0  0  0  0
  -10.7783   -1.7290   -5.7308 O   0  0  0  0  0  0  0  0  0  0  0  0
  -11.5484   -0.5447   -5.8723 C   0  0  0  0  0  0  0  0  0  0  0  0
  -12.6271   -0.5375   -4.7435 C   0  0  0  0  0  0  0  0  0  0  0  0
  -13.8975   -0.9900   -5.1989 O   0  0  0  0  0  0  0  0  0  0  0  0
  -14.4714   -0.1877   -6.2256 C   0  0  0  0  0  0  0  0  0  0  0  0
  -15.2245    0.8495   -5.6500 O   0  0  0  0  0  0  0  0  0  0  0  0
  -13.4485    0.3785   -7.2499 C   0  0  0  0  0  0  0  0  0  0  0  0
  -12.1934   -0.5020   -7.2761 C   0  0  0  0  0  0  0  0  0  0  0  0
  -11.2712    0.0223   -8.1973 O   0  0  0  0  0  0  0  0  0  0  0  0
  -15.8041    1.2106   -6.3655 H   0  0  0  0  0  0  0  0  0  0  0  0
  -11.4676   -0.3923   -9.0780 H   0  0  0  0  0  0  0  0  0  0  0  0
  -14.0566    0.4319   -8.5870 N   0  0  0  0  0  0  0  0  0  0  0  0
  -14.0106    1.5683   -9.4588 C   0  0  0  0  0  0  0  0  0  0  0  0
  -13.4184    2.8771   -9.0247 C   0  0  0  0  0  0  0  0  0  0  0  0
  -14.4722    1.4664  -10.6274 O   0  0  0  0  0  0  0  0  0  0  0  0
  -14.5487   -0.4237   -8.9345 H   0  0  0  0  0  0  0  0  0  0  0  0
  -12.7186    0.7950   -3.9709 C   0  0  0  0  0  0  0  0  0  0  0  0
  -11.4445    1.3479   -3.8251 O   0  0  0  0  0  0  0  0  0  0  0  0
  -11.5764    2.2351   -3.4051 H   0  0  0  0  0  0  0  0  0  0  0  0
 28 29  1  0  0  0
 29 30  2  0  0  0
 29 31  1  0  0  0
 31 18  1  0  0  0
 31 32  1  0  0  0
 18 19  1  0  0  0
 18 24  1  0  0  0
 19 17  1  0  0  0
 19 20  1  0  0  0
 17  1  1  0  0  0
  1  2  1  0  0  0
  1  6  1  0  0  0
  2 14  1  0  0  0
  2  3  1  0  0  0
 14 15  1  0  0  0
 15 16  1  0  0  0
  3  4  1  0  0  0
  4 36  1  0  0  0
  4  5  1  0  0  0
 36 37  1  0  0  0
 37 38  1  0  0  0
 37 43  1  0  0  0
 38 52  1  0  0  0
 38 39  1  0  0  0
 52 53  1  0  0  0
 53 54  1  0  0  0
 39 40  1  0  0  0
 40 41  1  0  0  0
 40 42  1  0  0  0
 41 45  1  0  0  0
 42 47  1  0  0  0
 42 43  1  0  0  0
 47 48  1  0  0  0
 47 51  1  0  0  0
 48 49  1  0  0  0
 48 50  2  0  0  0
 43 44  1  0  0  0
 44 46  1  0  0  0
  5  9  1  0  0  0
  5  6  1  0  0  0
  9 10  1  0  0  0
  9 13  1  0  0  0
 10 11  1  0  0  0
 10 12  2  0  0  0
  6  7  1  0  0  0
  7  8  1  0  0  0
 20 21  1  0  0  0
 21 33  1  0  0  0
 21 22  1  0  0  0
 33 34  1  0  0  0
 34 35  1  0  0  0
 22 23  1  0  0  0
 22 24  1  0  0  0
 23 26  1  0  0  0
 24 25  1  0  0  0
 25 27  1  0  0  0
M  END
> <COMPND>
    ../0-casp/HunPgd.pdb 

> <AUTHOR>
    GENERATED BY OPEN BABEL 3.1.0

> <MASTER>
        0    0    0    0    0    0    0    0   84    0   84    0

> <minimizedAffinity>
-6.21497

> <CNNscore>
0.1770114303

> <CNNaffinity>
3.9965739250

> <CNN_VS>
0.7074392438

> <CNNaffinity_variance>
0.7838722467

$$$$



 54 56  0  0  0  0  0  0  0  0999 V2000
   14.4226    5.4190   -3.5673 C   0  0  0  0  0  0  0  0  0  0  0  0
   13.7081    6.5691   -2.7736 C   0  0  0  0  0  0  0  0  0  0  0  0
   12.5747    7.1676   -3.3952 O   0  0  0  0  0  0  0  0  0  0  0  0
   12.1952    6.5809   -4.6251 C   0  0  0  0  0  0  0  0  0  0  0  0
   13.3779    6.5964   -5.6091 C   0  0  0  0  0  0  0  0  0  0  0  0
   14.5818    5.7824   -5.0644 C   0  0  0  0  0  0  0  0  0  0  0  0
   15.7735    6.5057   -5.2755 O   0  0  0  0  0  0  0  0  0  0  0  0
   16.5178    5.8504   -5.2612 H   0  0  0  0  0  0  0  0  0  0  0  0
   12.9445    6.0574   -6.9052 N   0  0  0  0  0  0  0  0  0  0  0  0
   13.2172    6.6662   -8.1733 C   0  0  0  0  0  0  0  0  0  0  0  0
   14.1413    7.8444   -8.3115 C   0  0  0  0  0  0  0  0  0  0  0  0
   12.6454    6.2290   -9.2081 O   0  0  0  0  0  0  0  0  0  0  0  0
   12.2875    5.2484   -6.8960 H   0  0  0  0  0  0  0  0  0  0  0  0
   14.6919    7.6860   -2.3713 C   0  0  0  0  0  0  0  0  0  0  0  0
   16.0010    7.1954   -2.3384 O   0  0  0  0  0  0  0  0  0  0  0  0
   16.4392    7.5709   -1.5315 H   0  0  0  0  0  0  0  0  0  0  0  0
   13.6734    4.2109   -3.4993 O   0  0  0  0  0  0  0  0  0  0  0  0
   12.8536    2.3091   -2.2892 C   0  0  0  0  0  0  0  0  0  0  0  0
   13.6023    3.6569   -2.1946 C   0  0  0  0  0  0  0  0  0  0  0  0
   14.8952    3.4104   -1.6719 O   0  0  0  0  0  0  0  0  0  0  0  0
   14.8092    3.1993   -0.2706 C   0  0  0  0  0  0  0  0  0  0  0  0
   13.7004    2.1621    0.1271 C   0  0  0  0  0  0  0  0  0  0  0  0
   12.6042    2.8258    0.7008 O   0  0  0  0  0  0  0  0  0  0  0  0
   13.2073    1.3705   -1.1006 C   0  0  0  0  0  0  0  0  0  0  0  0
   14.2127    0.4676   -1.4915 O   0  0  0  0  0  0  0  0  0  0  0  0
   12.8759    3.0625    1.6292 H   0  0  0  0  0  0  0  0  0  0  0  0
   13.7772   -0.2206   -2.0575 H   0  0  0  0  0  0  0  0  0  0  0  0
    9.3577    3.2947   -3.6787 C   0  0  0  0  0  0  0  0  0  0  0  0
   10.7385    2.7274   -3.6286 C   0  0  0  0  0  0  0  0  0  0  0  0
   11.3169    2.4314   -4.7089 O   0  0  0  0  0  0  0  0  0  0  0  0
   11.4027    2.5281   -2.3732 N   0  0  0  0  0  0  0  0  0  0  0  0
   10.8586    2.7165   -1.4946 H   0  0  0  0  0  0  0  0  0  0  0  0
   16.1927    2.7906    0.2537 C   0  0  0  0  0  0  0  0  0  0  0  0
   16.3150    1.3950    0.3369 O   0  0  0  0  0  0  0  0  0  0  0  0
   16.0871    1.1424    1.2700 H   0  0  0  0  0  0  0  0  0  0  0  0
   11.1531    7.3727   -5.1763 O   0  0  0  0  0  0  0  0  0  0  0  0
    9.9356    6.6601   -5.3361 C   0  0  0  0  0  0  0  0  0  0  0  0
    9.5406    6.7198   -6.8455 C   0  0  0  0  0  0  0  0  0  0  0  0
    8.5711    7.7259   -7.1172 O   0  0  0  0  0  0  0  0  0  0  0  0
    7.3295    7.5392   -6.4457 C   0  0  0  0  0  0  0  0  0  0  0  0
    6.4838    6.7365   -7.2298 O   0  0  0  0  0  0  0  0  0  0  0  0
    7.4539    6.9650   -5.0067 C   0  0  0  0  0  0  0  0  0  0  0  0
    8.8421    7.2798   -4.4368 C   0  0  0  0  0  0  0  0  0  0  0  0
    8.9487    6.7493   -3.1401 O   0  0  0  0  0  0  0  0  0  0  0  0
    5.5703    6.8473   -6.8672 H   0  0  0  0  0  0  0  0  0  0  0  0
    8.6334    7.4487   -2.5097 H   0  0  0  0  0  0  0  0  0  0  0  0
    6.4114    7.5418   -4.1459 N   0  0  0  0  0  0  0  0  0  0  0  0
    6.2753    8.9382   -3.8541 C   0  0  0  0  0  0  0  0  0  0  0  0
    7.2810    9.9480   -4.3242 C   0  0  0  0  0  0  0  0  0  0  0  0
    5.2790    9.3340   -3.1910 O   0  0  0  0  0  0  0  0  0  0  0  0
    5.7099    6.8898   -3.7241 H   0  0  0  0  0  0  0  0  0  0  0  0
    9.1557    5.3527   -7.4484 C   0  0  0  0  0  0  0  0  0  0  0  0
   10.2499    4.8059   -8.1224 O   0  0  0  0  0  0  0  0  0  0  0  0
    9.9716    3.8992   -8.4078 H   0  0  0  0  0  0  0  0  0  0  0  0
 28 29  1  0  0  0
 29 30  2  0  0  0
 29 31  1  0  0  0
 31 18  1  0  0  0
 31 32  1  0  0  0
 18 19  1  0  0  0
 18 24  1  0  0  0
 19 17  1  0  0  0
 19 20  1  0  0  0
 17  1  1  0  0  0
  1  2  1  0  0  0
  1  6  1  0  0  0
  2 14  1  0  0  0
  2  3  1  0  0  0
 14 15  1  0  0  0
 15 16  1  0  0  0
  3  4  1  0  0  0
  4 36  1  0  0  0
  4  5  1  0  0  0
 36 37  1  0  0  0
 37 38  1  0  0  0
 37 43  1  0  0  0
 38 52  1  0  0  0
 38 39  1  0  0  0
 52 53  1  0  0  0
 53 54  1  0  0  0
 39 40  1  0  0  0
 40 41  1  0  0  0
 40 42  1  0  0  0
 41 45  1  0  0  0
 42 47  1  0  0  0
 42 43  1  0  0  0
 47 48  1  0  0  0
 47 51  1  0  0  0
 48 49  1  0  0  0
 48 50  2  0  0  0
 43 44  1  0  0  0
 44 46  1  0  0  0
  5  9  1  0  0  0
  5  6  1  0  0  0
  9 10  1  0  0  0
  9 13  1  0  0  0
 10 11  1  0  0  0
 10 12  2  0  0  0
  6  7  1  0  0  0
  7  8  1  0  0  0
 20 21  1  0  0  0
 21 33  1  0  0  0
 21 22  1  0  0  0
 33 34  1  0  0  0
 34 35  1  0  0  0
 22 23  1  0  0  0
 22 24  1  0  0  0
 23 26  1  0  0  0
 24 25  1  0  0  0
 25 27  1  0  0  0
M  END
> <COMPND>
    ../0-casp/HunPgd.pdb 

> <AUTHOR>
    GENERATED BY OPEN BABEL 3.1.0

> <MASTER>
        0    0    0    0    0    0    0    0   84    0   84    0

> <minimizedAffinity>
-7.87958

> <CNNscore>
0.1763076335

> <CNNaffinity>
4.3381114006

> <CNN_VS>
0.7648421526

> <CNNaffinity_variance>
1.1194760799

$$$$



 54 56  0  0  0  0  0  0  0  0999 V2000
  -15.1642   -4.3743    1.3775 C   0  0  0  0  0  0  0  0  0  0  0  0
  -14.4758   -5.1758    0.2170 C   0  0  0  0  0  0  0  0  0  0  0  0
  -13.7417   -4.4158   -0.7383 O   0  0  0  0  0  0  0  0  0  0  0  0
  -13.6664   -3.0307   -0.4614 C   0  0  0  0  0  0  0  0  0  0  0  0
  -15.0796   -2.4383   -0.3229 C   0  0  0  0  0  0  0  0  0  0  0  0
  -15.8611   -3.0980    0.8445 C   0  0  0  0  0  0  0  0  0  0  0  0
  -17.1759   -3.3884    0.4264 O   0  0  0  0  0  0  0  0  0  0  0  0
  -17.7319   -3.4608    1.2445 H   0  0  0  0  0  0  0  0  0  0  0  0
  -14.9849   -0.9871   -0.1153 N   0  0  0  0  0  0  0  0  0  0  0  0
  -14.1303   -0.3554    0.8458 C   0  0  0  0  0  0  0  0  0  0  0  0
  -13.1006   -1.1245    1.6265 C   0  0  0  0  0  0  0  0  0  0  0  0
  -14.2582    0.8774    1.0754 O   0  0  0  0  0  0  0  0  0  0  0  0
  -15.6759   -0.3830   -0.6090 H   0  0  0  0  0  0  0  0  0  0  0  0
  -15.4800   -6.0703   -0.5372 C   0  0  0  0  0  0  0  0  0  0  0  0
  -15.8640   -5.4678   -1.7393 O   0  0  0  0  0  0  0  0  0  0  0  0
  -16.8422   -5.5994   -1.8389 H   0  0  0  0  0  0  0  0  0  0  0  0
  -14.2094   -3.9641    2.3499 O   0  0  0  0  0  0  0  0  0  0  0  0
  -12.9112   -4.4426    4.3092 C   0  0  0  0  0  0  0  0  0  0  0  0
  -13.6560   -5.0383    3.0942 C   0  0  0  0  0  0  0  0  0  0  0  0
  -14.6691   -5.9032    3.5753 O   0  0  0  0  0  0  0  0  0  0  0  0
  -14.0878   -7.1277    3.9974 C   0  0  0  0  0  0  0  0  0  0  0  0
  -12.8522   -6.9267    4.9441 C   0  0  0  0  0  0  0  0  0  0  0  0
  -11.6648   -7.2199    4.2544 O   0  0  0  0  0  0  0  0  0  0  0  0
  -12.7734   -5.4768    5.4626 C   0  0  0  0  0  0  0  0  0  0  0  0
  -13.7984   -5.2762    6.4050 O   0  0  0  0  0  0  0  0  0  0  0  0
  -11.6089   -8.2129    4.2048 H   0  0  0  0  0  0  0  0  0  0  0  0
  -13.5487   -4.4763    6.9356 H   0  0  0  0  0  0  0  0  0  0  0  0
   -9.9581   -1.9904    3.6852 C   0  0  0  0  0  0  0  0  0  0  0  0
  -11.1079   -2.6572    4.3665 C   0  0  0  0  0  0  0  0  0  0  0  0
  -11.6501   -2.0853    5.3505 O   0  0  0  0  0  0  0  0  0  0  0  0
  -11.5957   -3.9251    3.9066 N   0  0  0  0  0  0  0  0  0  0  0  0
  -11.0693   -4.4023    3.1330 H   0  0  0  0  0  0  0  0  0  0  0  0
  -15.1756   -7.9929    4.6486 C   0  0  0  0  0  0  0  0  0  0  0  0
  -16.4285   -7.7671    4.0580 O   0  0  0  0  0  0  0  0  0  0  0  0
  -16.8901   -7.0873    4.6159 H   0  0  0  0  0  0  0  0  0  0  0  0
  -13.0326   -2.4044   -1.5672 O   0  0  0  0  0  0  0  0  0  0  0  0
  -11.6398   -2.6712   -1.6368 C   0  0  0  0  0  0  0  0  0  0  0  0
  -10.8866   -1.3058   -1.5604 C   0  0  0  0  0  0  0  0  0  0  0  0
  -10.4947   -0.8254   -2.8416 O   0  0  0  0  0  0  0  0  0  0  0  0
   -9.5887   -1.6776   -3.5345 C   0  0  0  0  0  0  0  0  0  0  0  0
   -8.2683   -1.3494   -3.1836 O   0  0  0  0  0  0  0  0  0  0  0  0
   -9.8497   -3.1967   -3.3338 C   0  0  0  0  0  0  0  0  0  0  0  0
  -11.3146   -3.4281   -2.9445 C   0  0  0  0  0  0  0  0  0  0  0  0
  -11.5389   -4.8022   -2.7561 O   0  0  0  0  0  0  0  0  0  0  0  0
   -7.6819   -1.7666   -3.8620 H   0  0  0  0  0  0  0  0  0  0  0  0
  -11.8095   -5.1789   -3.6342 H   0  0  0  0  0  0  0  0  0  0  0  0
   -9.5338   -3.9264   -4.5700 N   0  0  0  0  0  0  0  0  0  0  0  0
   -8.6846   -5.0784   -4.6424 C   0  0  0  0  0  0  0  0  0  0  0  0
   -7.9333   -5.5860   -3.4465 C   0  0  0  0  0  0  0  0  0  0  0  0
   -8.5698   -5.6904   -5.7385 O   0  0  0  0  0  0  0  0  0  0  0  0
   -9.9681   -3.5899   -5.4606 H   0  0  0  0  0  0  0  0  0  0  0  0
   -9.7265   -1.2847   -0.5432 C   0  0  0  0  0  0  0  0  0  0  0  0
   -9.9269   -0.2603    0.3846 O   0  0  0  0  0  0  0  0  0  0  0  0
   -9.2049   -0.3530    1.0563 H   0  0  0  0  0  0  0  0  0  0  0  0
 28 29  1  0  0  0
 29 30  2  0  0  0
 29 31  1  0  0  0
 31 18  1  0  0  0
 31 32  1  0  0  0
 18 19  1  0  0  0
 18 24  1  0  0  0
 19 17  1  0  0  0
 19 20  1  0  0  0
 17  1  1  0  0  0
  1  2  1  0  0  0
  1  6  1  0  0  0
  2 14  1  0  0  0
  2  3  1  0  0  0
 14 15  1  0  0  0
 15 16  1  0  0  0
  3  4  1  0  0  0
  4 36  1  0  0  0
  4  5  1  0  0  0
 36 37  1  0  0  0
 37 38  1  0  0  0
 37 43  1  0  0  0
 38 52  1  0  0  0
 38 39  1  0  0  0
 52 53  1  0  0  0
 53 54  1  0  0  0
 39 40  1  0  0  0
 40 41  1  0  0  0
 40 42  1  0  0  0
 41 45  1  0  0  0
 42 47  1  0  0  0
 42 43  1  0  0  0
 47 48  1  0  0  0
 47 51  1  0  0  0
 48 49  1  0  0  0
 48 50  2  0  0  0
 43 44  1  0  0  0
 44 46  1  0  0  0
  5  9  1  0  0  0
  5  6  1  0  0  0
  9 10  1  0  0  0
  9 13  1  0  0  0
 10 11  1  0  0  0
 10 12  2  0  0  0
  6  7  1  0  0  0
  7  8  1  0  0  0
 20 21  1  0  0  0
 21 33  1  0  0  0
 21 22  1  0  0  0
 33 34  1  0  0  0
 34 35  1  0  0  0
 22 23  1  0  0  0
 22 24  1  0  0  0
 23 26  1  0  0  0
 24 25  1  0  0  0
 25 27  1  0  0  0
M  END
> <COMPND>
    ../0-casp/HunPgd.pdb 

> <AUTHOR>
    GENERATED BY OPEN BABEL 3.1.0

> <MASTER>
        0    0    0    0    0    0    0    0   84    0   84    0

> <minimizedAffinity>
-8.87133

> <CNNscore>
0.1738999039

> <CNNaffinity>
4.4189743996

> <CNN_VS>
0.7684592009

> <CNNaffinity_variance>
0.9525570869

$$$$
