


 54 56  0  0  0  0  0  0  0  0999 V2000
    9.2705    4.2987   -4.0573 C   0  0  0  0  0  0  0  0  0  0  0  0
    9.8217    3.4792   -2.8379 C   0  0  0  0  0  0  0  0  0  0  0  0
   11.2369    3.3559   -2.7363 O   0  0  0  0  0  0  0  0  0  0  0  0
   11.9649    4.0652   -3.7193 C   0  0  0  0  0  0  0  0  0  0  0  0
   11.5196    3.6326   -5.1269 C   0  0  0  0  0  0  0  0  0  0  0  0
   10.0153    3.9314   -5.3647 C   0  0  0  0  0  0  0  0  0  0  0  0
    9.4077    2.8229   -5.9879 O   0  0  0  0  0  0  0  0  0  0  0  0
    8.5888    3.1550   -6.4392 H   0  0  0  0  0  0  0  0  0  0  0  0
   12.3394    4.3192   -6.1338 N   0  0  0  0  0  0  0  0  0  0  0  0
   13.1125    3.6581   -7.1445 C   0  0  0  0  0  0  0  0  0  0  0  0
   13.0153    2.1767   -7.3824 C   0  0  0  0  0  0  0  0  0  0  0  0
   13.9263    4.3247   -7.8386 O   0  0  0  0  0  0  0  0  0  0  0  0
   12.4713    5.3478   -6.0293 H   0  0  0  0  0  0  0  0  0  0  0  0
    9.2013    2.0694   -2.7647 C   0  0  0  0  0  0  0  0  0  0  0  0
   10.1920    1.0922   -2.8963 O   0  0  0  0  0  0  0  0  0  0  0  0
    9.8352    0.3849   -3.4936 H   0  0  0  0  0  0  0  0  0  0  0  0
    9.4374    5.6965   -3.8500 O   0  0  0  0  0  0  0  0  0  0  0  0
    7.8394    7.2810   -3.0190 C   0  0  0  0  0  0  0  0  0  0  0  0
    8.3145    6.4691   -4.2445 C   0  0  0  0  0  0  0  0  0  0  0  0
    8.6557    7.3790   -5.2740 O   0  0  0  0  0  0  0  0  0  0  0  0
    7.4723    7.8736   -5.8839 C   0  0  0  0  0  0  0  0  0  0  0  0
    6.4129    8.3829   -4.8430 C   0  0  0  0  0  0  0  0  0  0  0  0
    5.3474    7.4723   -4.7577 O   0  0  0  0  0  0  0  0  0  0  0  0
    7.0352    8.5438   -3.4422 C   0  0  0  0  0  0  0  0  0  0  0  0
    7.8832    9.6664   -3.4491 O   0  0  0  0  0  0  0  0  0  0  0  0
    4.7887    7.6187   -5.5683 H   0  0  0  0  0  0  0  0  0  0  0  0
    8.0211    9.9281   -2.5025 H   0  0  0  0  0  0  0  0  0  0  0  0
    6.4069    5.7308    0.2467 C   0  0  0  0  0  0  0  0  0  0  0  0
    6.8928    6.7576   -0.7232 C   0  0  0  0  0  0  0  0  0  0  0  0
    7.1687    7.9128   -0.3018 O   0  0  0  0  0  0  0  0  0  0  0  0
    7.0519    6.4354   -2.1115 N   0  0  0  0  0  0  0  0  0  0  0  0
    6.7401    5.4853   -2.4339 H   0  0  0  0  0  0  0  0  0  0  0  0
    7.8554    8.9645   -6.8940 C   0  0  0  0  0  0  0  0  0  0  0  0
    7.4639   10.2352   -6.4457 O   0  0  0  0  0  0  0  0  0  0  0  0
    6.5774   10.4234   -6.8525 H   0  0  0  0  0  0  0  0  0  0  0  0
   13.3362    3.7266   -3.5675 O   0  0  0  0  0  0  0  0  0  0  0  0
   13.8767    4.1334   -2.3197 C   0  0  0  0  0  0  0  0  0  0  0  0
   14.5455    5.5301   -2.5206 C   0  0  0  0  0  0  0  0  0  0  0  0
   15.9558    5.4402   -2.6952 O   0  0  0  0  0  0  0  0  0  0  0  0
   16.6500    4.8845   -1.5836 C   0  0  0  0  0  0  0  0  0  0  0  0
   16.9874    5.9051   -0.6782 O   0  0  0  0  0  0  0  0  0  0  0  0
   15.8943    3.7350   -0.8596 C   0  0  0  0  0  0  0  0  0  0  0  0
   14.8927    3.0822   -1.8198 C   0  0  0  0  0  0  0  0  0  0  0  0
   14.2084    2.0514   -1.1540 O   0  0  0  0  0  0  0  0  0  0  0  0
   17.6762    5.5331   -0.0743 H   0  0  0  0  0  0  0  0  0  0  0  0
   14.7344    1.2182   -1.2836 H   0  0  0  0  0  0  0  0  0  0  0  0
   16.8535    2.7340   -0.3712 N   0  0  0  0  0  0  0  0  0  0  0  0
   16.9284    2.2680    0.9810 C   0  0  0  0  0  0  0  0  0  0  0  0
   16.0829    2.8589    2.0711 C   0  0  0  0  0  0  0  0  0  0  0  0
   17.7182    1.3273    1.2653 O   0  0  0  0  0  0  0  0  0  0  0  0
   17.5238    2.3226   -1.0624 H   0  0  0  0  0  0  0  0  0  0  0  0
   14.1494    6.5739   -1.4558 C   0  0  0  0  0  0  0  0  0  0  0  0
   14.7853    7.7885   -1.7232 O   0  0  0  0  0  0  0  0  0  0  0  0
   14.4262    8.4367   -1.0658 H   0  0  0  0  0  0  0  0  0  0  0  0
  1 17  1  0  0  0
  1  2  1  0  0  0
  1  6  1  0  0  0
  2 14  1  0  0  0
  2  3  1  0  0  0
  3  4  1  0  0  0
  4 36  1  0  0  0
  4  5  1  0  0  0
  5  9  1  0  0  0
  5  6  1  0  0  0
  6  7  1  0  0  0
  7  8  1  0  0  0
  9 10  1  0  0  0
  9 13  1  0  0  0
 10 11  1  0  0  0
 10 12  2  0  0  0
 14 15  1  0  0  0
 15 16  1  0  0  0
 17 19  1  0  0  0
 18 31  1  0  0  0
 18 19  1  0  0  0
 18 24  1  0  0  0
 19 20  1  0  0  0
 20 21  1  0  0  0
 21 33  1  0  0  0
 21 22  1  0  0  0
 22 23  1  0  0  0
 22 24  1  0  0  0
 23 26  1  0  0  0
 24 25  1  0  0  0
 25 27  1  0  0  0
 28 29  1  0  0  0
 29 30  2  0  0  0
 29 31  1  0  0  0
 31 32  1  0  0  0
 33 34  1  0  0  0
 34 35  1  0  0  0
 36 37  1  0  0  0
 37 38  1  0  0  0
 37 43  1  0  0  0
 38 52  1  0  0  0
 38 39  1  0  0  0
 39 40  1  0  0  0
 40 41  1  0  0  0
 40 42  1  0  0  0
 41 45  1  0  0  0
 42 47  1  0  0  0
 42 43  1  0  0  0
 43 44  1  0  0  0
 44 46  1  0  0  0
 47 48  1  0  0  0
 47 51  1  0  0  0
 48 49  1  0  0  0
 48 50  2  0  0  0
 52 53  1  0  0  0
 53 54  1  0  0  0
M  END
> <COMPND>
../0-casp/HunPgd.pdb

> <AUTHOR>
GENERATED BY OPEN BABEL 3.1.0

> <MASTER>
        0    0    0    0    0    0    0    0   54    0   54    0

> <minimizedAffinity>
-9.81748

> <CNNscore>
0.8447718024

> <CNNaffinity>
5.3665895462

> <CNN_VS>
4.5335435867

> <CNNaffinity_variance>
0.3921851218

$$$$



 54 56  0  0  0  0  0  0  0  0999 V2000
    8.7823    3.0064   -3.1290 C   0  0  0  0  0  0  0  0  0  0  0  0
    9.4384    1.8520   -2.2929 C   0  0  0  0  0  0  0  0  0  0  0  0
   10.8616    1.8232   -2.2475 O   0  0  0  0  0  0  0  0  0  0  0  0
   11.4967    2.9003   -2.9076 C   0  0  0  0  0  0  0  0  0  0  0  0
   11.0391    2.9698   -4.3747 C   0  0  0  0  0  0  0  0  0  0  0  0
    9.5085    3.2032   -4.4829 C   0  0  0  0  0  0  0  0  0  0  0  0
    8.9698    2.3474   -5.4646 O   0  0  0  0  0  0  0  0  0  0  0  0
    8.1122    2.7482   -5.7617 H   0  0  0  0  0  0  0  0  0  0  0  0
   11.7667    4.0425   -5.0656 N   0  0  0  0  0  0  0  0  0  0  0  0
   12.6916    3.8381   -6.1422 C   0  0  0  0  0  0  0  0  0  0  0  0
   12.8740    2.4955   -6.7940 C   0  0  0  0  0  0  0  0  0  0  0  0
   13.4026    4.7995   -6.5405 O   0  0  0  0  0  0  0  0  0  0  0  0
   11.7061    5.0028   -4.6649 H   0  0  0  0  0  0  0  0  0  0  0  0
    8.9348    0.4633   -2.7354 C   0  0  0  0  0  0  0  0  0  0  0  0
    8.6704   -0.3383   -1.6214 O   0  0  0  0  0  0  0  0  0  0  0  0
    9.0166   -1.2468   -1.8192 H   0  0  0  0  0  0  0  0  0  0  0  0
    8.8446    4.2432   -2.4282 O   0  0  0  0  0  0  0  0  0  0  0  0
    7.6438    6.3032   -2.6914 C   0  0  0  0  0  0  0  0  0  0  0  0
    8.7400    5.3809   -3.2697 C   0  0  0  0  0  0  0  0  0  0  0  0
    9.9559    6.1051   -3.3045 O   0  0  0  0  0  0  0  0  0  0  0  0
    9.9408    7.0087   -4.4001 C   0  0  0  0  0  0  0  0  0  0  0  0
    8.6291    7.8689   -4.4673 C   0  0  0  0  0  0  0  0  0  0  0  0
    7.8138    7.4200   -5.5187 O   0  0  0  0  0  0  0  0  0  0  0  0
    7.8302    7.7774   -3.1524 C   0  0  0  0  0  0  0  0  0  0  0  0
    8.5101    8.5035   -2.1574 O   0  0  0  0  0  0  0  0  0  0  0  0
    8.2209    7.7692   -6.3571 H   0  0  0  0  0  0  0  0  0  0  0  0
    7.8534    8.6889   -1.4378 H   0  0  0  0  0  0  0  0  0  0  0  0
    4.6168    5.0837   -4.8057 C   0  0  0  0  0  0  0  0  0  0  0  0
    6.0259    5.2498   -4.3386 C   0  0  0  0  0  0  0  0  0  0  0  0
    6.9667    4.9000   -5.1007 O   0  0  0  0  0  0  0  0  0  0  0  0
    6.3079    5.8056   -3.0470 N   0  0  0  0  0  0  0  0  0  0  0  0
    5.4956    6.0142   -2.4142 H   0  0  0  0  0  0  0  0  0  0  0  0
   11.1997    7.8851   -4.3356 C   0  0  0  0  0  0  0  0  0  0  0  0
   11.5067    8.2406   -3.0133 O   0  0  0  0  0  0  0  0  0  0  0  0
   11.0979    9.1316   -2.8524 H   0  0  0  0  0  0  0  0  0  0  0  0
   12.8950    2.6497   -2.8936 O   0  0  0  0  0  0  0  0  0  0  0  0
   13.5580    3.2470   -1.7898 C   0  0  0  0  0  0  0  0  0  0  0  0
   14.0856    4.6436   -2.2475 C   0  0  0  0  0  0  0  0  0  0  0  0
   15.4646    4.6172   -2.6015 O   0  0  0  0  0  0  0  0  0  0  0  0
   16.3365    4.2536   -1.5366 C   0  0  0  0  0  0  0  0  0  0  0  0
   16.7073    5.4017   -0.8158 O   0  0  0  0  0  0  0  0  0  0  0  0
   15.7710    3.1643   -0.5826 C   0  0  0  0  0  0  0  0  0  0  0  0
   14.7079    2.3329   -1.3107 C   0  0  0  0  0  0  0  0  0  0  0  0
   14.1963    1.3579   -0.4380 O   0  0  0  0  0  0  0  0  0  0  0  0
   17.4946    5.1535   -0.2715 H   0  0  0  0  0  0  0  0  0  0  0  0
   14.7641    0.5482   -0.5370 H   0  0  0  0  0  0  0  0  0  0  0  0
   16.8593    2.2951   -0.1130 N   0  0  0  0  0  0  0  0  0  0  0  0
   17.1690    2.0472    1.2631 C   0  0  0  0  0  0  0  0  0  0  0  0
   16.4591    2.7607    2.3764 C   0  0  0  0  0  0  0  0  0  0  0  0
   18.0554    1.1984    1.5517 O   0  0  0  0  0  0  0  0  0  0  0  0
   17.4443    1.8125   -0.8349 H   0  0  0  0  0  0  0  0  0  0  0  0
   13.7500    5.7909   -1.2723 C   0  0  0  0  0  0  0  0  0  0  0  0
   13.8739    7.0196   -1.9252 O   0  0  0  0  0  0  0  0  0  0  0  0
   13.5624    7.7050   -1.2815 H   0  0  0  0  0  0  0  0  0  0  0  0
  1 17  1  0  0  0
  1  2  1  0  0  0
  1  6  1  0  0  0
  2 14  1  0  0  0
  2  3  1  0  0  0
  3  4  1  0  0  0
  4 36  1  0  0  0
  4  5  1  0  0  0
  5  9  1  0  0  0
  5  6  1  0  0  0
  6  7  1  0  0  0
  7  8  1  0  0  0
  9 10  1  0  0  0
  9 13  1  0  0  0
 10 11  1  0  0  0
 10 12  2  0  0  0
 14 15  1  0  0  0
 15 16  1  0  0  0
 17 19  1  0  0  0
 18 31  1  0  0  0
 18 19  1  0  0  0
 18 24  1  0  0  0
 19 20  1  0  0  0
 20 21  1  0  0  0
 21 33  1  0  0  0
 21 22  1  0  0  0
 22 23  1  0  0  0
 22 24  1  0  0  0
 23 26  1  0  0  0
 24 25  1  0  0  0
 25 27  1  0  0  0
 28 29  1  0  0  0
 29 30  2  0  0  0
 29 31  1  0  0  0
 31 32  1  0  0  0
 33 34  1  0  0  0
 34 35  1  0  0  0
 36 37  1  0  0  0
 37 38  1  0  0  0
 37 43  1  0  0  0
 38 52  1  0  0  0
 38 39  1  0  0  0
 39 40  1  0  0  0
 40 41  1  0  0  0
 40 42  1  0  0  0
 41 45  1  0  0  0
 42 47  1  0  0  0
 42 43  1  0  0  0
 43 44  1  0  0  0
 44 46  1  0  0  0
 47 48  1  0  0  0
 47 51  1  0  0  0
 48 49  1  0  0  0
 48 50  2  0  0  0
 52 53  1  0  0  0
 53 54  1  0  0  0
M  END
> <COMPND>
../0-casp/HunPgd.pdb

> <AUTHOR>
GENERATED BY OPEN BABEL 3.1.0

> <MASTER>
        0    0    0    0    0    0    0    0   54    0   54    0

> <minimizedAffinity>
-9.39243

> <CNNscore>
0.5202686787

> <CNNaffinity>
5.0206880569

> <CNN_VS>
2.6121068001

> <CNNaffinity_variance>
0.4658551216

$$$$



 54 56  0  0  0  0  0  0  0  0999 V2000
    9.4801    4.2354   -4.0820 C   0  0  0  0  0  0  0  0  0  0  0  0
   10.1138    3.4543   -2.8775 C   0  0  0  0  0  0  0  0  0  0  0  0
   11.5287    3.5340   -2.7359 O   0  0  0  0  0  0  0  0  0  0  0  0
   12.1700    4.3821   -3.6679 C   0  0  0  0  0  0  0  0  0  0  0  0
   11.8294    3.9488   -5.1042 C   0  0  0  0  0  0  0  0  0  0  0  0
   10.3042    4.0354   -5.3781 C   0  0  0  0  0  0  0  0  0  0  0  0
    9.8819    2.8775   -6.0616 O   0  0  0  0  0  0  0  0  0  0  0  0
    9.0352    3.1056   -6.5258 H   0  0  0  0  0  0  0  0  0  0  0  0
   12.5655    4.7891   -6.0580 N   0  0  0  0  0  0  0  0  0  0  0  0
   13.5457    4.3032   -6.9850 C   0  0  0  0  0  0  0  0  0  0  0  0
   13.7895    2.8341   -7.1922 C   0  0  0  0  0  0  0  0  0  0  0  0
   14.2535    5.1248   -7.6272 O   0  0  0  0  0  0  0  0  0  0  0  0
   12.4640    5.8226   -5.9694 H   0  0  0  0  0  0  0  0  0  0  0  0
    9.7051    1.9674   -2.8773 C   0  0  0  0  0  0  0  0  0  0  0  0
    8.6696    1.7456   -1.9651 O   0  0  0  0  0  0  0  0  0  0  0  0
    8.8706    0.9003   -1.4861 H   0  0  0  0  0  0  0  0  0  0  0  0
    9.4349    5.6327   -3.8170 O   0  0  0  0  0  0  0  0  0  0  0  0
    7.7173    7.1777   -3.1708 C   0  0  0  0  0  0  0  0  0  0  0  0
    8.2580    6.2654   -4.2943 C   0  0  0  0  0  0  0  0  0  0  0  0
    8.5329    7.0707   -5.4257 O   0  0  0  0  0  0  0  0  0  0  0  0
    7.3176    7.3981   -6.0838 C   0  0  0  0  0  0  0  0  0  0  0  0
    6.2183    7.9444   -5.1050 C   0  0  0  0  0  0  0  0  0  0  0  0
    5.2250    6.9718   -4.9074 O   0  0  0  0  0  0  0  0  0  0  0  0
    6.8208    8.3167   -3.7361 C   0  0  0  0  0  0  0  0  0  0  0  0
    7.5808    9.4919   -3.8798 O   0  0  0  0  0  0  0  0  0  0  0  0
    4.6600    6.9784   -5.7269 H   0  0  0  0  0  0  0  0  0  0  0  0
    7.6945    9.8734   -2.9715 H   0  0  0  0  0  0  0  0  0  0  0  0
    6.4764    5.8496    0.2667 C   0  0  0  0  0  0  0  0  0  0  0  0
    6.8925    6.8099   -0.7991 C   0  0  0  0  0  0  0  0  0  0  0  0
    7.1619    7.9985   -0.4783 O   0  0  0  0  0  0  0  0  0  0  0  0
    6.9930    6.3876   -2.1659 N   0  0  0  0  0  0  0  0  0  0  0  0
    6.6878    5.4103   -2.4016 H   0  0  0  0  0  0  0  0  0  0  0  0
    7.6205    8.3880   -7.2176 C   0  0  0  0  0  0  0  0  0  0  0  0
    7.1378    9.6709   -6.9173 O   0  0  0  0  0  0  0  0  0  0  0  0
    6.2399    9.7458   -7.3356 H   0  0  0  0  0  0  0  0  0  0  0  0
   13.5718    4.2406   -3.4856 O   0  0  0  0  0  0  0  0  0  0  0  0
   14.1995    5.4322   -3.0379 C   0  0  0  0  0  0  0  0  0  0  0  0
   15.2829    5.8269   -4.0909 C   0  0  0  0  0  0  0  0  0  0  0  0
   16.5920    5.4190   -3.7067 O   0  0  0  0  0  0  0  0  0  0  0  0
   17.0585    6.0081   -2.4977 C   0  0  0  0  0  0  0  0  0  0  0  0
   17.6946    7.2289   -2.7810 O   0  0  0  0  0  0  0  0  0  0  0  0
   15.9660    6.1973   -1.4082 C   0  0  0  0  0  0  0  0  0  0  0  0
   14.8192    5.2062   -1.6406 C   0  0  0  0  0  0  0  0  0  0  0  0
   13.8329    5.3912   -0.6572 O   0  0  0  0  0  0  0  0  0  0  0  0
   18.2208    7.4681   -1.9788 H   0  0  0  0  0  0  0  0  0  0  0  0
   14.0656    4.7999    0.1069 H   0  0  0  0  0  0  0  0  0  0  0  0
   16.5480    5.9941   -0.0739 N   0  0  0  0  0  0  0  0  0  0  0  0
   17.0656    4.7491    0.4090 C   0  0  0  0  0  0  0  0  0  0  0  0
   16.9548    3.4821   -0.3877 C   0  0  0  0  0  0  0  0  0  0  0  0
   17.6408    4.7148    1.5304 O   0  0  0  0  0  0  0  0  0  0  0  0
   16.5990    6.8203    0.5672 H   0  0  0  0  0  0  0  0  0  0  0  0
   15.2299    7.3077   -4.5202 C   0  0  0  0  0  0  0  0  0  0  0  0
   14.3600    7.4565   -5.6030 O   0  0  0  0  0  0  0  0  0  0  0  0
   14.2991    8.4303   -5.7742 H   0  0  0  0  0  0  0  0  0  0  0  0
  1 17  1  0  0  0
  1  2  1  0  0  0
  1  6  1  0  0  0
  2 14  1  0  0  0
  2  3  1  0  0  0
  3  4  1  0  0  0
  4 36  1  0  0  0
  4  5  1  0  0  0
  5  9  1  0  0  0
  5  6  1  0  0  0
  6  7  1  0  0  0
  7  8  1  0  0  0
  9 10  1  0  0  0
  9 13  1  0  0  0
 10 11  1  0  0  0
 10 12  2  0  0  0
 14 15  1  0  0  0
 15 16  1  0  0  0
 17 19  1  0  0  0
 18 31  1  0  0  0
 18 19  1  0  0  0
 18 24  1  0  0  0
 19 20  1  0  0  0
 20 21  1  0  0  0
 21 33  1  0  0  0
 21 22  1  0  0  0
 22 23  1  0  0  0
 22 24  1  0  0  0
 23 26  1  0  0  0
 24 25  1  0  0  0
 25 27  1  0  0  0
 28 29  1  0  0  0
 29 30  2  0  0  0
 29 31  1  0  0  0
 31 32  1  0  0  0
 33 34  1  0  0  0
 34 35  1  0  0  0
 36 37  1  0  0  0
 37 38  1  0  0  0
 37 43  1  0  0  0
 38 52  1  0  0  0
 38 39  1  0  0  0
 39 40  1  0  0  0
 40 41  1  0  0  0
 40 42  1  0  0  0
 41 45  1  0  0  0
 42 47  1  0  0  0
 42 43  1  0  0  0
 43 44  1  0  0  0
 44 46  1  0  0  0
 47 48  1  0  0  0
 47 51  1  0  0  0
 48 49  1  0  0  0
 48 50  2  0  0  0
 52 53  1  0  0  0
 53 54  1  0  0  0
M  END
> <COMPND>
../0-casp/HunPgd.pdb

> <AUTHOR>
GENERATED BY OPEN BABEL 3.1.0

> <MASTER>
        0    0    0    0    0    0    0    0   54    0   54    0

> <minimizedAffinity>
-8.63415

> <CNNscore>
0.4768336713

> <CNNaffinity>
4.6680526733

> <CNN_VS>
2.2258846760

> <CNNaffinity_variance>
0.9116414785

$$$$



 54 56  0  0  0  0  0  0  0  0999 V2000
   14.5308    5.2999   -3.6831 C   0  0  0  0  0  0  0  0  0  0  0  0
   13.7246    6.4585   -2.9973 C   0  0  0  0  0  0  0  0  0  0  0  0
   12.5774    6.9384   -3.6915 O   0  0  0  0  0  0  0  0  0  0  0  0
   12.2726    6.2420   -4.8837 C   0  0  0  0  0  0  0  0  0  0  0  0
   13.4822    6.2589   -5.8341 C   0  0  0  0  0  0  0  0  0  0  0  0
   14.7152    5.5632   -5.1983 C   0  0  0  0  0  0  0  0  0  0  0  0
   15.8670    6.3414   -5.4307 O   0  0  0  0  0  0  0  0  0  0  0  0
   16.6491    5.7366   -5.3470 H   0  0  0  0  0  0  0  0  0  0  0  0
   13.1230    5.6013   -7.0974 N   0  0  0  0  0  0  0  0  0  0  0  0
   13.4856    6.0822   -8.3988 C   0  0  0  0  0  0  0  0  0  0  0  0
   14.4354    7.2322   -8.5888 C   0  0  0  0  0  0  0  0  0  0  0  0
   12.9726    5.5531   -9.4212 O   0  0  0  0  0  0  0  0  0  0  0  0
   12.4530    4.8041   -7.0534 H   0  0  0  0  0  0  0  0  0  0  0  0
   14.6263    7.6609   -2.6524 C   0  0  0  0  0  0  0  0  0  0  0  0
   15.9480    7.2441   -2.4707 O   0  0  0  0  0  0  0  0  0  0  0  0
   16.3063    7.7259   -1.6808 H   0  0  0  0  0  0  0  0  0  0  0  0
   13.8535    4.0561   -3.5459 O   0  0  0  0  0  0  0  0  0  0  0  0
   12.9813    2.2696   -2.2034 C   0  0  0  0  0  0  0  0  0  0  0  0
   13.7825    3.5905   -2.2075 C   0  0  0  0  0  0  0  0  0  0  0  0
   15.0729    3.3280   -1.6879 O   0  0  0  0  0  0  0  0  0  0  0  0
   15.0024    3.2113   -0.2742 C   0  0  0  0  0  0  0  0  0  0  0  0
   13.8616    2.2450    0.2050 C   0  0  0  0  0  0  0  0  0  0  0  0
   12.8012    2.9869    0.7500 O   0  0  0  0  0  0  0  0  0  0  0  0
   13.3188    1.3958   -0.9612 C   0  0  0  0  0  0  0  0  0  0  0  0
   14.2831    0.4315   -1.3069 O   0  0  0  0  0  0  0  0  0  0  0  0
   13.0963    3.2718    1.6569 H   0  0  0  0  0  0  0  0  0  0  0  0
   13.8124   -0.2740   -1.8209 H   0  0  0  0  0  0  0  0  0  0  0  0
    9.1555    1.7179   -2.6267 C   0  0  0  0  0  0  0  0  0  0  0  0
   10.5669    1.4878   -2.1951 C   0  0  0  0  0  0  0  0  0  0  0  0
   10.8943    0.3515   -1.7593 O   0  0  0  0  0  0  0  0  0  0  0  0
   11.5390    2.5386   -2.2813 N   0  0  0  0  0  0  0  0  0  0  0  0
   11.2082    3.4903   -2.5789 H   0  0  0  0  0  0  0  0  0  0  0  0
   16.3782    2.7830    0.2557 C   0  0  0  0  0  0  0  0  0  0  0  0
   16.5039    1.3856    0.2784 O   0  0  0  0  0  0  0  0  0  0  0  0
   16.2598    1.0894    1.1946 H   0  0  0  0  0  0  0  0  0  0  0  0
   11.2024    6.9258   -5.5203 O   0  0  0  0  0  0  0  0  0  0  0  0
    9.9357    6.6334   -4.9503 C   0  0  0  0  0  0  0  0  0  0  0  0
    9.0515    5.9802   -6.0593 C   0  0  0  0  0  0  0  0  0  0  0  0
    8.1621    6.9111   -6.6675 O   0  0  0  0  0  0  0  0  0  0  0  0
    7.2180    7.4903   -5.7732 C   0  0  0  0  0  0  0  0  0  0  0  0
    6.0711    6.6807   -5.7067 O   0  0  0  0  0  0  0  0  0  0  0  0
    7.7705    7.7788   -4.3492 C   0  0  0  0  0  0  0  0  0  0  0  0
    9.2958    7.9280   -4.4009 C   0  0  0  0  0  0  0  0  0  0  0  0
    9.7866    8.1791   -3.1085 O   0  0  0  0  0  0  0  0  0  0  0  0
    5.3578    7.2313   -5.2997 H   0  0  0  0  0  0  0  0  0  0  0  0
    9.7873    9.1647   -2.9810 H   0  0  0  0  0  0  0  0  0  0  0  0
    7.1600    9.0038   -3.8132 N   0  0  0  0  0  0  0  0  0  0  0  0
    6.7864    9.1973   -2.4443 C   0  0  0  0  0  0  0  0  0  0  0  0
    6.8872    8.0942   -1.4316 C   0  0  0  0  0  0  0  0  0  0  0  0
    6.3706   10.3282   -2.0733 O   0  0  0  0  0  0  0  0  0  0  0  0
    6.9959    9.7975   -4.4761 H   0  0  0  0  0  0  0  0  0  0  0  0
    8.3360    4.6890   -5.6110 C   0  0  0  0  0  0  0  0  0  0  0  0
    8.5137    4.5008   -4.2383 O   0  0  0  0  0  0  0  0  0  0  0  0
    7.9630    3.7139   -3.9958 H   0  0  0  0  0  0  0  0  0  0  0  0
  1 17  1  0  0  0
  1  2  1  0  0  0
  1  6  1  0  0  0
  2 14  1  0  0  0
  2  3  1  0  0  0
  3  4  1  0  0  0
  4 36  1  0  0  0
  4  5  1  0  0  0
  5  9  1  0  0  0
  5  6  1  0  0  0
  6  7  1  0  0  0
  7  8  1  0  0  0
  9 10  1  0  0  0
  9 13  1  0  0  0
 10 11  1  0  0  0
 10 12  2  0  0  0
 14 15  1  0  0  0
 15 16  1  0  0  0
 17 19  1  0  0  0
 18 31  1  0  0  0
 18 19  1  0  0  0
 18 24  1  0  0  0
 19 20  1  0  0  0
 20 21  1  0  0  0
 21 33  1  0  0  0
 21 22  1  0  0  0
 22 23  1  0  0  0
 22 24  1  0  0  0
 23 26  1  0  0  0
 24 25  1  0  0  0
 25 27  1  0  0  0
 28 29  1  0  0  0
 29 30  2  0  0  0
 29 31  1  0  0  0
 31 32  1  0  0  0
 33 34  1  0  0  0
 34 35  1  0  0  0
 36 37  1  0  0  0
 37 38  1  0  0  0
 37 43  1  0  0  0
 38 52  1  0  0  0
 38 39  1  0  0  0
 39 40  1  0  0  0
 40 41  1  0  0  0
 40 42  1  0  0  0
 41 45  1  0  0  0
 42 47  1  0  0  0
 42 43  1  0  0  0
 43 44  1  0  0  0
 44 46  1  0  0  0
 47 48  1  0  0  0
 47 51  1  0  0  0
 48 49  1  0  0  0
 48 50  2  0  0  0
 52 53  1  0  0  0
 53 54  1  0  0  0
M  END
> <COMPND>
../0-casp/HunPgd.pdb

> <AUTHOR>
GENERATED BY OPEN BABEL 3.1.0

> <MASTER>
        0    0    0    0    0    0    0    0   54    0   54    0

> <minimizedAffinity>
-8.37903

> <CNNscore>
0.4143703282

> <CNNaffinity>
4.6633234024

> <CNN_VS>
1.9323428869

> <CNNaffinity_variance>
0.9986324310

$$$$



 54 56  0  0  0  0  0  0  0  0999 V2000
    9.8634    3.7946   -3.7237 C   0  0  0  0  0  0  0  0  0  0  0  0
   10.2774    2.8586   -2.5343 C   0  0  0  0  0  0  0  0  0  0  0  0
   11.6733    2.6788   -2.3168 O   0  0  0  0  0  0  0  0  0  0  0  0
   12.5078    3.4415   -3.1661 C   0  0  0  0  0  0  0  0  0  0  0  0
   12.1832    3.1424   -4.6398 C   0  0  0  0  0  0  0  0  0  0  0  0
   10.7159    3.5114   -4.9855 C   0  0  0  0  0  0  0  0  0  0  0  0
   10.1392    2.4798   -5.7534 O   0  0  0  0  0  0  0  0  0  0  0  0
    9.3748    2.8760   -6.2464 H   0  0  0  0  0  0  0  0  0  0  0  0
   13.1107    3.8815   -5.5064 N   0  0  0  0  0  0  0  0  0  0  0  0
   13.6511    3.3809   -6.7367 C   0  0  0  0  0  0  0  0  0  0  0  0
   13.1724    2.0967   -7.3550 C   0  0  0  0  0  0  0  0  0  0  0  0
   14.5798    4.0122   -7.3090 O   0  0  0  0  0  0  0  0  0  0  0  0
   13.5030    4.7758   -5.1423 H   0  0  0  0  0  0  0  0  0  0  0  0
    9.6155    1.4697   -2.6381 C   0  0  0  0  0  0  0  0  0  0  0  0
    8.6890    1.4470   -3.6843 O   0  0  0  0  0  0  0  0  0  0  0  0
    7.8875    0.9590   -3.3619 H   0  0  0  0  0  0  0  0  0  0  0  0
   10.0475    5.1640   -3.3835 O   0  0  0  0  0  0  0  0  0  0  0  0
    9.5974    6.5715   -5.2732 C   0  0  0  0  0  0  0  0  0  0  0  0
    9.0616    6.0248   -3.9313 C   0  0  0  0  0  0  0  0  0  0  0  0
    7.8570    5.3261   -4.1864 O   0  0  0  0  0  0  0  0  0  0  0  0
    6.8019    6.2547   -4.3907 C   0  0  0  0  0  0  0  0  0  0  0  0
    7.1694    7.3840   -5.4176 C   0  0  0  0  0  0  0  0  0  0  0  0
    7.3860    8.5957   -4.7419 O   0  0  0  0  0  0  0  0  0  0  0  0
    8.4427    7.0289   -6.2102 C   0  0  0  0  0  0  0  0  0  0  0  0
    8.1371    6.0027   -7.1229 O   0  0  0  0  0  0  0  0  0  0  0  0
    6.4861    8.9480   -4.5038 H   0  0  0  0  0  0  0  0  0  0  0  0
    8.8526    6.0065   -7.8096 H   0  0  0  0  0  0  0  0  0  0  0  0
   12.9474    8.4921   -4.8168 C   0  0  0  0  0  0  0  0  0  0  0  0
   11.9420    7.5375   -5.3728 C   0  0  0  0  0  0  0  0  0  0  0  0
   12.3344    6.6119   -6.1328 O   0  0  0  0  0  0  0  0  0  0  0  0
   10.5522    7.6641   -5.0429 N   0  0  0  0  0  0  0  0  0  0  0  0
   10.2575    8.4925   -4.4677 H   0  0  0  0  0  0  0  0  0  0  0  0
    5.5407    5.4859   -4.8093 C   0  0  0  0  0  0  0  0  0  0  0  0
    4.8760    4.9508   -3.6953 O   0  0  0  0  0  0  0  0  0  0  0  0
    5.1932    4.0151   -3.5929 H   0  0  0  0  0  0  0  0  0  0  0  0
   13.8497    3.0447   -2.9210 O   0  0  0  0  0  0  0  0  0  0  0  0
   14.3471    3.4998   -1.6720 C   0  0  0  0  0  0  0  0  0  0  0  0
   15.0256    4.8869   -1.9041 C   0  0  0  0  0  0  0  0  0  0  0  0
   16.4410    4.7889   -2.0254 O   0  0  0  0  0  0  0  0  0  0  0  0
   17.0946    4.2767   -0.8692 C   0  0  0  0  0  0  0  0  0  0  0  0
   17.4024    5.3319    0.0066 O   0  0  0  0  0  0  0  0  0  0  0  0
   16.3114    3.1573   -0.1275 C   0  0  0  0  0  0  0  0  0  0  0  0
   15.3426    2.4681   -1.0958 C   0  0  0  0  0  0  0  0  0  0  0  0
   14.6330    1.4650   -0.4145 O   0  0  0  0  0  0  0  0  0  0  0  0
   18.0688    4.9833    0.6485 H   0  0  0  0  0  0  0  0  0  0  0  0
   15.1613    0.6268   -0.4927 H   0  0  0  0  0  0  0  0  0  0  0  0
   17.2506    2.1755    0.4332 N   0  0  0  0  0  0  0  0  0  0  0  0
   17.5150    2.0054    1.8304 C   0  0  0  0  0  0  0  0  0  0  0  0
   16.9219    2.9155    2.8659 C   0  0  0  0  0  0  0  0  0  0  0  0
   18.2583    1.0588    2.2058 O   0  0  0  0  0  0  0  0  0  0  0  0
   17.7553    1.5465   -0.2346 H   0  0  0  0  0  0  0  0  0  0  0  0
   14.5950    5.9721   -0.8957 C   0  0  0  0  0  0  0  0  0  0  0  0
   15.1932    7.1904   -1.2261 O   0  0  0  0  0  0  0  0  0  0  0  0
   14.8127    7.8605   -0.6038 H   0  0  0  0  0  0  0  0  0  0  0  0
  1 17  1  0  0  0
  1  2  1  0  0  0
  1  6  1  0  0  0
  2 14  1  0  0  0
  2  3  1  0  0  0
  3  4  1  0  0  0
  4 36  1  0  0  0
  4  5  1  0  0  0
  5  9  1  0  0  0
  5  6  1  0  0  0
  6  7  1  0  0  0
  7  8  1  0  0  0
  9 10  1  0  0  0
  9 13  1  0  0  0
 10 11  1  0  0  0
 10 12  2  0  0  0
 14 15  1  0  0  0
 15 16  1  0  0  0
 17 19  1  0  0  0
 18 31  1  0  0  0
 18 19  1  0  0  0
 18 24  1  0  0  0
 19 20  1  0  0  0
 20 21  1  0  0  0
 21 33  1  0  0  0
 21 22  1  0  0  0
 22 23  1  0  0  0
 22 24  1  0  0  0
 23 26  1  0  0  0
 24 25  1  0  0  0
 25 27  1  0  0  0
 28 29  1  0  0  0
 29 30  2  0  0  0
 29 31  1  0  0  0
 31 32  1  0  0  0
 33 34  1  0  0  0
 34 35  1  0  0  0
 36 37  1  0  0  0
 37 38  1  0  0  0
 37 43  1  0  0  0
 38 52  1  0  0  0
 38 39  1  0  0  0
 39 40  1  0  0  0
 40 41  1  0  0  0
 40 42  1  0  0  0
 41 45  1  0  0  0
 42 47  1  0  0  0
 42 43  1  0  0  0
 43 44  1  0  0  0
 44 46  1  0  0  0
 47 48  1  0  0  0
 47 51  1  0  0  0
 48 49  1  0  0  0
 48 50  2  0  0  0
 52 53  1  0  0  0
 53 54  1  0  0  0
M  END
> <COMPND>
../0-casp/HunPgd.pdb

> <AUTHOR>
GENERATED BY OPEN BABEL 3.1.0

> <MASTER>
        0    0    0    0    0    0    0    0   54    0   54    0

> <minimizedAffinity>
-8.55819

> <CNNscore>
0.3244389296

> <CNNaffinity>
4.9721884727

> <CNN_VS>
1.6131714582

> <CNNaffinity_variance>
0.2964253128

$$$$



 54 56  0  0  0  0  0  0  0  0999 V2000
   12.9301    4.2215   -5.4868 C   0  0  0  0  0  0  0  0  0  0  0  0
   12.4862    3.5012   -6.8083 C   0  0  0  0  0  0  0  0  0  0  0  0
   11.0949    3.2352   -6.9565 O   0  0  0  0  0  0  0  0  0  0  0  0
   10.2825    3.7338   -5.9121 C   0  0  0  0  0  0  0  0  0  0  0  0
   10.7607    3.1843   -4.5571 C   0  0  0  0  0  0  0  0  0  0  0  0
   12.2194    3.6167   -4.2505 C   0  0  0  0  0  0  0  0  0  0  0  0
   12.9424    2.5146   -3.7517 O   0  0  0  0  0  0  0  0  0  0  0  0
   13.7143    2.8777   -3.2450 H   0  0  0  0  0  0  0  0  0  0  0  0
    9.8593    3.6475   -3.4939 N   0  0  0  0  0  0  0  0  0  0  0  0
    9.1672    2.7868   -2.5793 C   0  0  0  0  0  0  0  0  0  0  0  0
    9.4417    1.3101   -2.5096 C   0  0  0  0  0  0  0  0  0  0  0  0
    8.2757    3.2670   -1.8289 O   0  0  0  0  0  0  0  0  0  0  0  0
    9.6046    4.6581   -3.4831 H   0  0  0  0  0  0  0  0  0  0  0  0
   13.2624    2.1885   -7.0366 C   0  0  0  0  0  0  0  0  0  0  0  0
   14.5148    2.4528   -7.5980 O   0  0  0  0  0  0  0  0  0  0  0  0
   14.6736    1.7746   -8.3046 H   0  0  0  0  0  0  0  0  0  0  0  0
   12.6085    5.6070   -5.5278 O   0  0  0  0  0  0  0  0  0  0  0  0
   12.6573    6.8878   -3.5001 C   0  0  0  0  0  0  0  0  0  0  0  0
   13.4614    6.4138   -4.7311 C   0  0  0  0  0  0  0  0  0  0  0  0
   14.5807    5.6779   -4.2729 O   0  0  0  0  0  0  0  0  0  0  0  0
   15.5742    6.5720   -3.7924 C   0  0  0  0  0  0  0  0  0  0  0  0
   15.0045    7.6434   -2.7962 C   0  0  0  0  0  0  0  0  0  0  0  0
   14.9427    8.8979   -3.4239 O   0  0  0  0  0  0  0  0  0  0  0  0
   13.5904    7.2651   -2.3138 C   0  0  0  0  0  0  0  0  0  0  0  0
   13.6901    6.1795   -1.4244 O   0  0  0  0  0  0  0  0  0  0  0  0
   15.8747    9.2468   -3.4442 H   0  0  0  0  0  0  0  0  0  0  0  0
   12.8457    6.1552   -0.9050 H   0  0  0  0  0  0  0  0  0  0  0  0
    9.5911    8.8832   -4.8182 C   0  0  0  0  0  0  0  0  0  0  0  0
   10.3821    7.8249   -4.1214 C   0  0  0  0  0  0  0  0  0  0  0  0
    9.8042    6.7599   -3.7748 O   0  0  0  0  0  0  0  0  0  0  0  0
   11.7792    8.0106   -3.8564 N   0  0  0  0  0  0  0  0  0  0  0  0
   12.2044    8.9415   -4.0939 H   0  0  0  0  0  0  0  0  0  0  0  0
   16.7139    5.7550   -3.1673 C   0  0  0  0  0  0  0  0  0  0  0  0
   16.2230    4.8121   -2.2513 O   0  0  0  0  0  0  0  0  0  0  0  0
   16.2729    5.2313   -1.3521 H   0  0  0  0  0  0  0  0  0  0  0  0
    8.9596    3.2664   -6.1351 O   0  0  0  0  0  0  0  0  0  0  0  0
    8.3327    3.8775   -7.2523 C   0  0  0  0  0  0  0  0  0  0  0  0
    8.1329    5.3902   -6.9205 C   0  0  0  0  0  0  0  0  0  0  0  0
    6.8124    5.6817   -6.4746 O   0  0  0  0  0  0  0  0  0  0  0  0
    5.7956    5.4034   -7.4313 C   0  0  0  0  0  0  0  0  0  0  0  0
    5.5962    6.5280   -8.2503 O   0  0  0  0  0  0  0  0  0  0  0  0
    6.0493    4.1343   -8.2923 C   0  0  0  0  0  0  0  0  0  0  0  0
    6.9876    3.1768   -7.5478 C   0  0  0  0  0  0  0  0  0  0  0  0
    7.2183    2.0378   -8.3374 O   0  0  0  0  0  0  0  0  0  0  0  0
    4.7306    6.3952   -8.7095 H   0  0  0  0  0  0  0  0  0  0  0  0
    6.5132    1.3754   -8.1104 H   0  0  0  0  0  0  0  0  0  0  0  0
    4.7740    3.4655   -8.5875 N   0  0  0  0  0  0  0  0  0  0  0  0
    4.1509    3.4303   -9.8765 C   0  0  0  0  0  0  0  0  0  0  0  0
    4.7064    4.1884  -11.0465 C   0  0  0  0  0  0  0  0  0  0  0  0
    3.1118    2.7351  -10.0393 O   0  0  0  0  0  0  0  0  0  0  0  0
    4.2903    2.9691   -7.8027 H   0  0  0  0  0  0  0  0  0  0  0  0
    8.6007    6.3444   -8.0388 C   0  0  0  0  0  0  0  0  0  0  0  0
    9.2036    5.6129   -9.0648 O   0  0  0  0  0  0  0  0  0  0  0  0
    9.4002    6.2626   -9.7861 H   0  0  0  0  0  0  0  0  0  0  0  0
  1 17  1  0  0  0
  1  2  1  0  0  0
  1  6  1  0  0  0
  2 14  1  0  0  0
  2  3  1  0  0  0
  3  4  1  0  0  0
  4 36  1  0  0  0
  4  5  1  0  0  0
  5  9  1  0  0  0
  5  6  1  0  0  0
  6  7  1  0  0  0
  7  8  1  0  0  0
  9 10  1  0  0  0
  9 13  1  0  0  0
 10 11  1  0  0  0
 10 12  2  0  0  0
 14 15  1  0  0  0
 15 16  1  0  0  0
 17 19  1  0  0  0
 18 31  1  0  0  0
 18 19  1  0  0  0
 18 24  1  0  0  0
 19 20  1  0  0  0
 20 21  1  0  0  0
 21 33  1  0  0  0
 21 22  1  0  0  0
 22 23  1  0  0  0
 22 24  1  0  0  0
 23 26  1  0  0  0
 24 25  1  0  0  0
 25 27  1  0  0  0
 28 29  1  0  0  0
 29 30  2  0  0  0
 29 31  1  0  0  0
 31 32  1  0  0  0
 33 34  1  0  0  0
 34 35  1  0  0  0
 36 37  1  0  0  0
 37 38  1  0  0  0
 37 43  1  0  0  0
 38 52  1  0  0  0
 38 39  1  0  0  0
 39 40  1  0  0  0
 40 41  1  0  0  0
 40 42  1  0  0  0
 41 45  1  0  0  0
 42 47  1  0  0  0
 42 43  1  0  0  0
 43 44  1  0  0  0
 44 46  1  0  0  0
 47 48  1  0  0  0
 47 51  1  0  0  0
 48 49  1  0  0  0
 48 50  2  0  0  0
 52 53  1  0  0  0
 53 54  1  0  0  0
M  END
> <COMPND>
../0-casp/HunPgd.pdb

> <AUTHOR>
GENERATED BY OPEN BABEL 3.1.0

> <MASTER>
        0    0    0    0    0    0    0    0   54    0   54    0

> <minimizedAffinity>
-7.59636

> <CNNscore>
0.3153800964

> <CNNaffinity>
4.4090399742

> <CNN_VS>
1.3905234337

> <CNNaffinity_variance>
0.8526878357

$$$$



 54 56  0  0  0  0  0  0  0  0999 V2000
   11.1805    7.4554   -4.8894 C   0  0  0  0  0  0  0  0  0  0  0  0
   10.5963    6.2772   -4.0333 C   0  0  0  0  0  0  0  0  0  0  0  0
   11.3873    5.8284   -2.9373 O   0  0  0  0  0  0  0  0  0  0  0  0
   12.5723    6.5687   -2.7203 C   0  0  0  0  0  0  0  0  0  0  0  0
   13.4341    6.5796   -3.9946 C   0  0  0  0  0  0  0  0  0  0  0  0
   12.6873    7.2457   -5.1809 C   0  0  0  0  0  0  0  0  0  0  0  0
   12.8650    6.4704   -6.3443 O   0  0  0  0  0  0  0  0  0  0  0  0
   12.7039    7.0678   -7.1200 H   0  0  0  0  0  0  0  0  0  0  0  0
   14.6952    7.2840   -3.7282 N   0  0  0  0  0  0  0  0  0  0  0  0
   15.9749    6.8854   -4.2378 C   0  0  0  0  0  0  0  0  0  0  0  0
   16.1227    5.7886   -5.2556 C   0  0  0  0  0  0  0  0  0  0  0  0
   17.0177    7.4428   -3.8014 O   0  0  0  0  0  0  0  0  0  0  0  0
   14.6811    8.0482   -3.0197 H   0  0  0  0  0  0  0  0  0  0  0  0
   10.2316    5.0586   -4.9049 C   0  0  0  0  0  0  0  0  0  0  0  0
    9.0044    5.2632   -5.5418 O   0  0  0  0  0  0  0  0  0  0  0  0
    8.4956    4.4131   -5.4883 H   0  0  0  0  0  0  0  0  0  0  0  0
   11.0471    8.6970   -4.2073 O   0  0  0  0  0  0  0  0  0  0  0  0
    8.9234    8.7600   -5.3209 C   0  0  0  0  0  0  0  0  0  0  0  0
    9.7008    9.1094   -4.0324 C   0  0  0  0  0  0  0  0  0  0  0  0
    9.0936    8.4285   -2.9498 O   0  0  0  0  0  0  0  0  0  0  0  0
    7.8974    9.0974   -2.5774 C   0  0  0  0  0  0  0  0  0  0  0  0
    6.9636    9.4100   -3.8002 C   0  0  0  0  0  0  0  0  0  0  0  0
    7.0040   10.7819   -4.0970 O   0  0  0  0  0  0  0  0  0  0  0  0
    7.3970    8.6232   -5.0526 C   0  0  0  0  0  0  0  0  0  0  0  0
    7.0661    7.2676   -4.8734 O   0  0  0  0  0  0  0  0  0  0  0  0
    6.4443   11.2336   -3.4090 H   0  0  0  0  0  0  0  0  0  0  0  0
    7.0638    6.8510   -5.7734 H   0  0  0  0  0  0  0  0  0  0  0  0
   10.3413   10.4277   -8.5347 C   0  0  0  0  0  0  0  0  0  0  0  0
    9.7563    9.3895   -7.6340 C   0  0  0  0  0  0  0  0  0  0  0  0
    9.7774    8.1833   -7.9986 O   0  0  0  0  0  0  0  0  0  0  0  0
    9.1861    9.7546   -6.3699 N   0  0  0  0  0  0  0  0  0  0  0  0
    9.1210   10.7772   -6.1376 H   0  0  0  0  0  0  0  0  0  0  0  0
    7.1798    8.2663   -1.5043 C   0  0  0  0  0  0  0  0  0  0  0  0
    6.8604    6.9853   -1.9800 O   0  0  0  0  0  0  0  0  0  0  0  0
    5.9261    7.0272   -2.3147 H   0  0  0  0  0  0  0  0  0  0  0  0
   13.3078    5.9137   -1.6964 O   0  0  0  0  0  0  0  0  0  0  0  0
   13.8748    4.6823   -2.1170 C   0  0  0  0  0  0  0  0  0  0  0  0
   12.7758    3.5807   -1.9870 C   0  0  0  0  0  0  0  0  0  0  0  0
   12.9048    2.8191   -0.7908 O   0  0  0  0  0  0  0  0  0  0  0  0
   14.1275    2.0979   -0.6838 C   0  0  0  0  0  0  0  0  0  0  0  0
   13.9858    0.8349   -1.2837 O   0  0  0  0  0  0  0  0  0  0  0  0
   15.3677    2.8415   -1.2544 C   0  0  0  0  0  0  0  0  0  0  0  0
   15.1149    4.3540   -1.2559 C   0  0  0  0  0  0  0  0  0  0  0  0
   16.2369    5.0164   -1.7818 O   0  0  0  0  0  0  0  0  0  0  0  0
   14.7413    0.2825   -0.9649 H   0  0  0  0  0  0  0  0  0  0  0  0
   16.8455    5.2124   -1.0209 H   0  0  0  0  0  0  0  0  0  0  0  0
   16.5555    2.5276   -0.4476 N   0  0  0  0  0  0  0  0  0  0  0  0
   16.6000    2.5560    0.9836 C   0  0  0  0  0  0  0  0  0  0  0  0
   15.4356    3.0293    1.8037 C   0  0  0  0  0  0  0  0  0  0  0  0
   17.6417    2.1630    1.5753 O   0  0  0  0  0  0  0  0  0  0  0  0
   17.4300    2.2524   -0.9533 H   0  0  0  0  0  0  0  0  0  0  0  0
   12.6291    2.6907   -3.2386 C   0  0  0  0  0  0  0  0  0  0  0  0
   13.4262    3.1900   -4.2714 O   0  0  0  0  0  0  0  0  0  0  0  0
   13.3604    2.5338   -5.0104 H   0  0  0  0  0  0  0  0  0  0  0  0
  1 17  1  0  0  0
  1  2  1  0  0  0
  1  6  1  0  0  0
  2 14  1  0  0  0
  2  3  1  0  0  0
  3  4  1  0  0  0
  4 36  1  0  0  0
  4  5  1  0  0  0
  5  9  1  0  0  0
  5  6  1  0  0  0
  6  7  1  0  0  0
  7  8  1  0  0  0
  9 10  1  0  0  0
  9 13  1  0  0  0
 10 11  1  0  0  0
 10 12  2  0  0  0
 14 15  1  0  0  0
 15 16  1  0  0  0
 17 19  1  0  0  0
 18 31  1  0  0  0
 18 19  1  0  0  0
 18 24  1  0  0  0
 19 20  1  0  0  0
 20 21  1  0  0  0
 21 33  1  0  0  0
 21 22  1  0  0  0
 22 23  1  0  0  0
 22 24  1  0  0  0
 23 26  1  0  0  0
 24 25  1  0  0  0
 25 27  1  0  0  0
 28 29  1  0  0  0
 29 30  2  0  0  0
 29 31  1  0  0  0
 31 32  1  0  0  0
 33 34  1  0  0  0
 34 35  1  0  0  0
 36 37  1  0  0  0
 37 38  1  0  0  0
 37 43  1  0  0  0
 38 52  1  0  0  0
 38 39  1  0  0  0
 39 40  1  0  0  0
 40 41  1  0  0  0
 40 42  1  0  0  0
 41 45  1  0  0  0
 42 47  1  0  0  0
 42 43  1  0  0  0
 43 44  1  0  0  0
 44 46  1  0  0  0
 47 48  1  0  0  0
 47 51  1  0  0  0
 48 49  1  0  0  0
 48 50  2  0  0  0
 52 53  1  0  0  0
 53 54  1  0  0  0
M  END
> <COMPND>
../0-casp/HunPgd.pdb

> <AUTHOR>
GENERATED BY OPEN BABEL 3.1.0

> <MASTER>
        0    0    0    0    0    0    0    0   54    0   54    0

> <minimizedAffinity>
-8.59994

> <CNNscore>
0.3150298595

> <CNNaffinity>
4.7686667442

> <CNN_VS>
1.5022723675

> <CNNaffinity_variance>
0.3243157864

$$$$



 54 56  0  0  0  0  0  0  0  0999 V2000
   13.4504    8.6366   -4.9649 C   0  0  0  0  0  0  0  0  0  0  0  0
   13.7579    7.4602   -5.9569 C   0  0  0  0  0  0  0  0  0  0  0  0
   13.8420    6.1543   -5.3951 O   0  0  0  0  0  0  0  0  0  0  0  0
   13.5556    6.0852   -4.0122 C   0  0  0  0  0  0  0  0  0  0  0  0
   14.4804    7.0329   -3.2290 C   0  0  0  0  0  0  0  0  0  0  0  0
   14.2838    8.5092   -3.6656 C   0  0  0  0  0  0  0  0  0  0  0  0
   15.5415    9.1262   -3.8196 O   0  0  0  0  0  0  0  0  0  0  0  0
   15.3976   10.1048   -3.7405 H   0  0  0  0  0  0  0  0  0  0  0  0
   14.2243    6.8902   -1.7898 N   0  0  0  0  0  0  0  0  0  0  0  0
   15.1282    6.2823   -0.8572 C   0  0  0  0  0  0  0  0  0  0  0  0
   16.5256    5.8840   -1.2437 C   0  0  0  0  0  0  0  0  0  0  0  0
   14.7387    6.0399    0.3166 O   0  0  0  0  0  0  0  0  0  0  0  0
   13.2710    7.1295   -1.4429 H   0  0  0  0  0  0  0  0  0  0  0  0
   15.0347    7.7216   -6.7810 C   0  0  0  0  0  0  0  0  0  0  0  0
   16.1515    7.1836   -6.1354 O   0  0  0  0  0  0  0  0  0  0  0  0
   16.8871    7.8450   -6.2115 H   0  0  0  0  0  0  0  0  0  0  0  0
   12.0773    8.6437   -4.5916 O   0  0  0  0  0  0  0  0  0  0  0  0
   10.0483    9.9006   -4.8322 C   0  0  0  0  0  0  0  0  0  0  0  0
   11.2243    9.2205   -5.5677 C   0  0  0  0  0  0  0  0  0  0  0  0
   11.9042   10.2060   -6.3232 O   0  0  0  0  0  0  0  0  0  0  0  0
   11.1600   10.5050   -7.4953 C   0  0  0  0  0  0  0  0  0  0  0  0
    9.6442   10.7911   -7.2028 C   0  0  0  0  0  0  0  0  0  0  0  0
    8.8600    9.7069   -7.6286 O   0  0  0  0  0  0  0  0  0  0  0  0
    9.3959   11.0162   -5.6984 C   0  0  0  0  0  0  0  0  0  0  0  0
    9.9229   12.2689   -5.3345 O   0  0  0  0  0  0  0  0  0  0  0  0
    8.7991    9.7778   -8.6196 H   0  0  0  0  0  0  0  0  0  0  0  0
    9.4948   12.5224   -4.4766 H   0  0  0  0  0  0  0  0  0  0  0  0
    8.0770    7.3576   -2.6487 C   0  0  0  0  0  0  0  0  0  0  0  0
    8.8140    8.5971   -3.0383 C   0  0  0  0  0  0  0  0  0  0  0  0
    9.2327    9.3680   -2.1334 O   0  0  0  0  0  0  0  0  0  0  0  0
    9.0506    8.9044   -4.4189 N   0  0  0  0  0  0  0  0  0  0  0  0
    8.6207    8.2756   -5.1425 H   0  0  0  0  0  0  0  0  0  0  0  0
   11.8350   11.6753   -8.2245 C   0  0  0  0  0  0  0  0  0  0  0  0
   11.7452   12.8609   -7.4792 O   0  0  0  0  0  0  0  0  0  0  0  0
   10.9472   13.3502   -7.8119 H   0  0  0  0  0  0  0  0  0  0  0  0
   13.8204    4.7570   -3.5833 O   0  0  0  0  0  0  0  0  0  0  0  0
   12.7526    4.1863   -2.8424 C   0  0  0  0  0  0  0  0  0  0  0  0
   13.0219    2.6531   -2.7190 C   0  0  0  0  0  0  0  0  0  0  0  0
   12.2903    1.8917   -3.6743 O   0  0  0  0  0  0  0  0  0  0  0  0
   10.8762    2.0022   -3.5537 C   0  0  0  0  0  0  0  0  0  0  0  0
   10.4011    1.0329   -2.6537 O   0  0  0  0  0  0  0  0  0  0  0  0
   10.3710    3.4172   -3.1549 C   0  0  0  0  0  0  0  0  0  0  0  0
   11.4098    4.4735   -3.5506 C   0  0  0  0  0  0  0  0  0  0  0  0
   10.9487    5.7473   -3.1779 O   0  0  0  0  0  0  0  0  0  0  0  0
    9.4247    0.9677   -2.7957 H   0  0  0  0  0  0  0  0  0  0  0  0
   10.4276    6.1068   -3.9441 H   0  0  0  0  0  0  0  0  0  0  0  0
    9.0882    3.6963   -3.8161 N   0  0  0  0  0  0  0  0  0  0  0  0
    8.8589    3.5966   -5.2262 C   0  0  0  0  0  0  0  0  0  0  0  0
    9.9690    3.2971   -6.1906 C   0  0  0  0  0  0  0  0  0  0  0  0
    7.6904    3.7539   -5.6728 O   0  0  0  0  0  0  0  0  0  0  0  0
    8.2796    3.9775   -3.2133 H   0  0  0  0  0  0  0  0  0  0  0  0
   12.8688    2.1031   -1.2858 C   0  0  0  0  0  0  0  0  0  0  0  0
   13.2115    0.7492   -1.2586 O   0  0  0  0  0  0  0  0  0  0  0  0
   13.1804    0.4774   -0.3066 H   0  0  0  0  0  0  0  0  0  0  0  0
  1 17  1  0  0  0
  1  2  1  0  0  0
  1  6  1  0  0  0
  2 14  1  0  0  0
  2  3  1  0  0  0
  3  4  1  0  0  0
  4 36  1  0  0  0
  4  5  1  0  0  0
  5  9  1  0  0  0
  5  6  1  0  0  0
  6  7  1  0  0  0
  7  8  1  0  0  0
  9 10  1  0  0  0
  9 13  1  0  0  0
 10 11  1  0  0  0
 10 12  2  0  0  0
 14 15  1  0  0  0
 15 16  1  0  0  0
 17 19  1  0  0  0
 18 31  1  0  0  0
 18 19  1  0  0  0
 18 24  1  0  0  0
 19 20  1  0  0  0
 20 21  1  0  0  0
 21 33  1  0  0  0
 21 22  1  0  0  0
 22 23  1  0  0  0
 22 24  1  0  0  0
 23 26  1  0  0  0
 24 25  1  0  0  0
 25 27  1  0  0  0
 28 29  1  0  0  0
 29 30  2  0  0  0
 29 31  1  0  0  0
 31 32  1  0  0  0
 33 34  1  0  0  0
 34 35  1  0  0  0
 36 37  1  0  0  0
 37 38  1  0  0  0
 37 43  1  0  0  0
 38 52  1  0  0  0
 38 39  1  0  0  0
 39 40  1  0  0  0
 40 41  1  0  0  0
 40 42  1  0  0  0
 41 45  1  0  0  0
 42 47  1  0  0  0
 42 43  1  0  0  0
 43 44  1  0  0  0
 44 46  1  0  0  0
 47 48  1  0  0  0
 47 51  1  0  0  0
 48 49  1  0  0  0
 48 50  2  0  0  0
 52 53  1  0  0  0
 53 54  1  0  0  0
M  END
> <COMPND>
../0-casp/HunPgd.pdb

> <AUTHOR>
GENERATED BY OPEN BABEL 3.1.0

> <MASTER>
        0    0    0    0    0    0    0    0   54    0   54    0

> <minimizedAffinity>
-8.27936

> <CNNscore>
0.3034558594

> <CNNaffinity>
4.3949751854

> <CNN_VS>
1.3336809874

> <CNNaffinity_variance>
1.0358215570

$$$$



 54 56  0  0  0  0  0  0  0  0999 V2000
    9.5495    3.9011   -3.7005 C   0  0  0  0  0  0  0  0  0  0  0  0
    9.8620    2.8911   -2.5410 C   0  0  0  0  0  0  0  0  0  0  0  0
   11.2351    2.6073   -2.2917 O   0  0  0  0  0  0  0  0  0  0  0  0
   12.1452    3.3450   -3.0833 C   0  0  0  0  0  0  0  0  0  0  0  0
   11.8477    3.1294   -4.5772 C   0  0  0  0  0  0  0  0  0  0  0  0
   10.4201    3.6119   -4.9485 C   0  0  0  0  0  0  0  0  0  0  0  0
    9.7997    2.6545   -5.7760 O   0  0  0  0  0  0  0  0  0  0  0  0
    9.0795    3.1220   -6.2732 H   0  0  0  0  0  0  0  0  0  0  0  0
   12.8496    3.8379   -5.3845 N   0  0  0  0  0  0  0  0  0  0  0  0
   13.4433    3.3221   -6.5835 C   0  0  0  0  0  0  0  0  0  0  0  0
   12.9570    2.0573   -7.2351 C   0  0  0  0  0  0  0  0  0  0  0  0
   14.4253    3.9221   -7.0975 O   0  0  0  0  0  0  0  0  0  0  0  0
   13.2509    4.7168   -4.9936 H   0  0  0  0  0  0  0  0  0  0  0  0
    9.1117    1.5563   -2.7231 C   0  0  0  0  0  0  0  0  0  0  0  0
   10.0169    0.4948   -2.8089 O   0  0  0  0  0  0  0  0  0  0  0  0
    9.7004   -0.1091   -3.5297 H   0  0  0  0  0  0  0  0  0  0  0  0
    9.8146    5.2396   -3.2968 O   0  0  0  0  0  0  0  0  0  0  0  0
    8.8844    7.0869   -4.5120 C   0  0  0  0  0  0  0  0  0  0  0  0
   10.0809    6.1188   -4.3781 C   0  0  0  0  0  0  0  0  0  0  0  0
   11.2469    6.8853   -4.1391 O   0  0  0  0  0  0  0  0  0  0  0  0
   11.6830    7.4800   -5.3529 C   0  0  0  0  0  0  0  0  0  0  0  0
   10.5291    8.2115   -6.1265 C   0  0  0  0  0  0  0  0  0  0  0  0
   10.1555    7.4614   -7.2532 O   0  0  0  0  0  0  0  0  0  0  0  0
    9.2890    8.4054   -5.2319 C   0  0  0  0  0  0  0  0  0  0  0  0
    9.5695    9.4005   -4.2777 O   0  0  0  0  0  0  0  0  0  0  0  0
   10.8631    7.6121   -7.9368 H   0  0  0  0  0  0  0  0  0  0  0  0
    8.6971    9.7202   -3.9311 H   0  0  0  0  0  0  0  0  0  0  0  0
    5.3490    5.6329   -5.2238 C   0  0  0  0  0  0  0  0  0  0  0  0
    6.4113    6.5681   -4.7461 C   0  0  0  0  0  0  0  0  0  0  0  0
    6.1023    7.4761   -3.9286 O   0  0  0  0  0  0  0  0  0  0  0  0
    7.7642    6.4331   -5.2021 N   0  0  0  0  0  0  0  0  0  0  0  0
    7.9642    5.7118   -5.9393 H   0  0  0  0  0  0  0  0  0  0  0  0
   12.8571    8.4212   -5.0484 C   0  0  0  0  0  0  0  0  0  0  0  0
   13.3762    8.1909   -3.7653 O   0  0  0  0  0  0  0  0  0  0  0  0
   12.9344    8.8386   -3.1555 H   0  0  0  0  0  0  0  0  0  0  0  0
   13.4490    2.8474   -2.8173 O   0  0  0  0  0  0  0  0  0  0  0  0
   14.0187    3.3803   -1.6315 C   0  0  0  0  0  0  0  0  0  0  0  0
   14.5772    4.7999   -1.9652 C   0  0  0  0  0  0  0  0  0  0  0  0
   15.9804    4.7915   -2.2072 O   0  0  0  0  0  0  0  0  0  0  0  0
   16.7644    4.3668   -1.0975 C   0  0  0  0  0  0  0  0  0  0  0  0
   17.0720    5.4717   -0.2852 O   0  0  0  0  0  0  0  0  0  0  0  0
   16.1269    3.2262   -0.2555 C   0  0  0  0  0  0  0  0  0  0  0  0
   15.1288    2.4389   -1.1132 C   0  0  0  0  0  0  0  0  0  0  0  0
   14.5513    1.4167   -0.3414 O   0  0  0  0  0  0  0  0  0  0  0  0
   17.8134    5.1920    0.3062 H   0  0  0  0  0  0  0  0  0  0  0  0
   15.1278    0.6132   -0.4397 H   0  0  0  0  0  0  0  0  0  0  0  0
   17.1763    2.3301    0.2507 N   0  0  0  0  0  0  0  0  0  0  0  0
   17.4032    2.0401    1.6347 C   0  0  0  0  0  0  0  0  0  0  0  0
   16.6384    2.7314    2.7253 C   0  0  0  0  0  0  0  0  0  0  0  0
   18.2618    1.1721    1.9493 O   0  0  0  0  0  0  0  0  0  0  0  0
   17.7965    1.8603   -0.4499 H   0  0  0  0  0  0  0  0  0  0  0  0
   14.1601    5.8906   -0.9570 C   0  0  0  0  0  0  0  0  0  0  0  0
   14.6991    7.1211   -1.3400 O   0  0  0  0  0  0  0  0  0  0  0  0
   14.3272    7.7908   -0.7121 H   0  0  0  0  0  0  0  0  0  0  0  0
  1 17  1  0  0  0
  1  2  1  0  0  0
  1  6  1  0  0  0
  2 14  1  0  0  0
  2  3  1  0  0  0
  3  4  1  0  0  0
  4 36  1  0  0  0
  4  5  1  0  0  0
  5  9  1  0  0  0
  5  6  1  0  0  0
  6  7  1  0  0  0
  7  8  1  0  0  0
  9 10  1  0  0  0
  9 13  1  0  0  0
 10 11  1  0  0  0
 10 12  2  0  0  0
 14 15  1  0  0  0
 15 16  1  0  0  0
 17 19  1  0  0  0
 18 31  1  0  0  0
 18 19  1  0  0  0
 18 24  1  0  0  0
 19 20  1  0  0  0
 20 21  1  0  0  0
 21 33  1  0  0  0
 21 22  1  0  0  0
 22 23  1  0  0  0
 22 24  1  0  0  0
 23 26  1  0  0  0
 24 25  1  0  0  0
 25 27  1  0  0  0
 28 29  1  0  0  0
 29 30  2  0  0  0
 29 31  1  0  0  0
 31 32  1  0  0  0
 33 34  1  0  0  0
 34 35  1  0  0  0
 36 37  1  0  0  0
 37 38  1  0  0  0
 37 43  1  0  0  0
 38 52  1  0  0  0
 38 39  1  0  0  0
 39 40  1  0  0  0
 40 41  1  0  0  0
 40 42  1  0  0  0
 41 45  1  0  0  0
 42 47  1  0  0  0
 42 43  1  0  0  0
 43 44  1  0  0  0
 44 46  1  0  0  0
 47 48  1  0  0  0
 47 51  1  0  0  0
 48 49  1  0  0  0
 48 50  2  0  0  0
 52 53  1  0  0  0
 53 54  1  0  0  0
M  END
> <COMPND>
../0-casp/HunPgd.pdb

> <AUTHOR>
GENERATED BY OPEN BABEL 3.1.0

> <MASTER>
        0    0    0    0    0    0    0    0   54    0   54    0

> <minimizedAffinity>
-8.63551

> <CNNscore>
0.2948763072

> <CNNaffinity>
4.6759786606

> <CNN_VS>
1.3788353205

> <CNNaffinity_variance>
0.5769965649

$$$$
